version 2
run Wireless03-0-20200305-20:53:48-1264
attr configname Wireless03
attr datetime 20200305-20:53:48
attr experiment Wireless03
attr inifile omnetpp.ini
attr iterationvars ""
attr iterationvarsf ""
attr measurement ""
attr network NCFSnNode
attr processid 1264
attr repetition 0
attr replication #0
attr resultdir results
attr runnumber 0
attr seedset 0
param *.runModeString "\"NC\""
param *.host*.app[0].destAddresses "\"10.0.0.255\""
param *.K 10
param *.fileLength 10*1024*1024B
param *.host*.mobility.typename "\"StationaryMobility\""
param *.host*.mobility.constraintAreaMinX 100m
param *.host*.mobility.constraintAreaMinY 50m
param *.host*.mobility.constraintAreaMinZ 0m
param *.host*.mobility.constraintAreaMaxX 650m
param *.host*.mobility.constraintAreaMaxY 500m
param *.host*.mobility.constraintAreaMaxZ 0m
param *.host*.ipv4.arp.typename "\"GlobalArp\""
param *.configurator.config "xml(\"<config><interface hosts='**' address='10.0.0.x' netmask='255.255.255.0'/><autoroute metric='errorRate'/></config>\")"
param **.forceBroadcast true
param *.host*.numApps 1
param *.host*.app[0].typename "\"NCFSUdpBasicApp\""
param *.host*.app[0].packetName "\"UDPData\""
param *.host*.app[0].localPort 5000
param *.host*.app[0].destPort 5000
param *.hostA.app[0].destAddresses "\"10.0.0.255\""
param *.hostA.app[0].startTime 1s
param *.host*.app[0].startTime 0s
param *.hostA.app[0].isBootNode true
param *.host*.app[0].sendInterval 1s
param *.host*.wlan[0].typename "\"WirelessInterface\""
param *.host*.wlan[0].radio.typename "\"UnitDiskRadio\""
param *.host*.wlan[0].mac.typename "\"CsmaCaMac\""
param *.host*.wlan[0].mac.ackTimeout 300us
param *.host*.wlan[0].mac.useAck false
param *.host*.wlan[0].mac.mtu 10*1024*1024
param *.host*.wlan[0].radio.transmitter.communicationRange 350m
param *.host*.wlan[0].radio.receiver.ignoreInterference true
param *.hostA.**.displayCommunicationRange true
param *.K 10
param *.fileLength 10*1024*1024B
param *.host*.**.bitrate 20Mbps

scalar NCFSnNode.radioMedium.propagation "Arrival computation count" 62475
scalar NCFSnNode.radioMedium "transmission count" 2473
scalar NCFSnNode.radioMedium "signal send count" 61825
scalar NCFSnNode.radioMedium "reception computation count" 61825
scalar NCFSnNode.radioMedium "interference computation count" 179129
scalar NCFSnNode.radioMedium "reception decision computation count" 51354
scalar NCFSnNode.radioMedium "listening decision computation count" 66632
scalar NCFSnNode.radioMedium "reception cache hit" 85.417290741365
attr unit %
scalar NCFSnNode.radioMedium "interference cache hit" 66.666666666667
attr unit %
scalar NCFSnNode.radioMedium "noise cache hit" 0
attr unit %
scalar NCFSnNode.radioMedium "snir cache hit" 50
attr unit %
scalar NCFSnNode.radioMedium "reception decision cache hit" 50
attr unit %
scalar NCFSnNode.radioMedium "reception result cache hit" 0
attr unit %
scalar NCFSnNode.hostA.lo[0].lo rcvdPkFromHl:count 990
attr interpolationmode none
attr source packetReceivedFromUpper
attr title "packets received from higher layer, count"
scalar NCFSnNode.hostA.lo[0].lo rcvdPkFromHl:sum(packetBytes) 41580
attr interpolationmode none
attr source packetReceivedFromUpper
attr title "packets received from higher layer, sum(packetBytes)"
scalar NCFSnNode.hostA.lo[0].lo passedUpPk:count 990
attr interpolationmode none
attr source packetSentToUpper
attr title "packets passed to higher layer, count"
scalar NCFSnNode.hostA.lo[0].lo passedUpPk:sum(packetBytes) 41580
attr interpolationmode none
attr source packetSentToUpper
attr title "packets passed to higher layer, sum(packetBytes)"
scalar NCFSnNode.hostA.wlan[0].mac numRetry 0
scalar NCFSnNode.hostA.wlan[0].mac numSentWithoutRetry 0
scalar NCFSnNode.hostA.wlan[0].mac numGivenUp 0
scalar NCFSnNode.hostA.wlan[0].mac numCollision 0
scalar NCFSnNode.hostA.wlan[0].mac numSent 0
scalar NCFSnNode.hostA.wlan[0].mac numReceived 0
scalar NCFSnNode.hostA.wlan[0].mac numSentBroadcast 990
scalar NCFSnNode.hostA.wlan[0].mac numReceivedBroadcast 1169
scalar NCFSnNode.hostA.wlan[0].mac packetDropIncorrectlyReceived:count 0
attr interpolationmode none
attr source packetDropReasonIsIncorrectlyReceived(packetDropped)
attr title "packet drop: incorrectly received, count"
scalar NCFSnNode.hostA.wlan[0].mac packetDropIncorrectlyReceived:sum(packetBytes) 0
attr interpolationmode none
attr source packetDropReasonIsIncorrectlyReceived(packetDropped)
attr title "packet drop: incorrectly received, sum(packetBytes)"
scalar NCFSnNode.hostA.wlan[0].mac packetDropNotAddressedToUs:count 0
attr interpolationmode none
attr source packetDropReasonIsNotAddressedToUs(packetDropped)
attr title "packet drop: not addressed to us, count"
scalar NCFSnNode.hostA.wlan[0].mac packetDropNotAddressedToUs:sum(packetBytes) 0
attr interpolationmode none
attr source packetDropReasonIsNotAddressedToUs(packetDropped)
attr title "packet drop: not addressed to us, sum(packetBytes)"
scalar NCFSnNode.hostA.wlan[0].mac packetDropQueueOverflow:count 0
attr interpolationmode none
attr source packetDropReasonIsQueueOverflow(packetDropped)
attr title "packet drop: queue overflow, count"
scalar NCFSnNode.hostA.wlan[0].mac packetDropQueueOverflow:sum(packetBytes) 0
attr interpolationmode none
attr source packetDropReasonIsQueueOverflow(packetDropped)
attr title "packet drop: queue overflow, sum(packetBytes)"
scalar NCFSnNode.hostA.wlan[0].mac packetDropRetryLimitReached:count 0
attr interpolationmode none
attr source packetDropReasonIsRetryLimitReached(packetDropped)
attr title "packet drop: retry limit reached, count"
scalar NCFSnNode.hostA.wlan[0].mac packetDropRetryLimitReached:sum(packetBytes) 0
attr interpolationmode none
attr source packetDropReasonIsRetryLimitReached(packetDropped)
attr title "packet drop: retry limit reached, sum(packetBytes)"
scalar NCFSnNode.hostA.wlan[0].mac linkBroken:count 0
attr interpolationmode none
attr source linkBroken
attr title "link break, count"
statistic NCFSnNode.hostA.wlan[0].radio minSnir:histogram
field count 0
field mean nan
field stddev nan
field min nan
field max nan
field sum 0
field sqrsum 0
attr source minimumSnir(packetSentToUpper)
attr title "Min SNIR, histogram"
bin	-inf	0
bin	0	0
bin	1	0
statistic NCFSnNode.hostA.wlan[0].radio packetErrorRate:histogram
field count 1169
field mean 0.23011120615911
field stddev 0.42108397864875
field min 0
field max 1
field sum 269
field sqrsum 269
attr source packetErrorRate(packetSentToUpper)
attr title "Packet error rate, histogram"
bin	-inf	0
bin	0	900
bin	1	269
bin	2	0
statistic NCFSnNode.hostA.wlan[0].radio bitErrorRate:histogram
field count 1169
field mean 0.23011120615911
field stddev 0.42108397864875
field min 0
field max 1
field sum 269
field sqrsum 269
attr source bitErrorRate(packetSentToUpper)
attr title "Bit error rate, histogram"
bin	-inf	0
bin	0	900
bin	1	269
bin	2	0
statistic NCFSnNode.hostA.wlan[0].radio symbolErrorRate:histogram
field count 1169
field mean 0.23011120615911
field stddev 0.42108397864875
field min 0
field max 1
field sum 269
field sqrsum 269
attr source symbolErrorRate(packetSentToUpper)
attr title "Symbol error rate, histogram"
bin	-inf	0
bin	0	900
bin	1	269
bin	2	0
scalar NCFSnNode.hostA.wlan[0].radio transmissionState:count 3960
attr interpolationmode sample-hold
attr source transmissionStateChanged
attr title "Radio transmission state, count"
scalar NCFSnNode.hostA.wlan[0].radio receptionState:count 4586
attr interpolationmode sample-hold
attr source receptionStateChanged
attr title "Radio reception state, count"
scalar NCFSnNode.hostA.wlan[0].radio radioMode:count 1983
attr interpolationmode sample-hold
attr source radioModeChanged
attr title "Radio mode, count"
scalar NCFSnNode.hostA.ipv4.ip packetDropAddressResolutionFailed:count 0
attr interpolationmode none
attr source packetDropReasonIsAddressResolutionFailed(packetDropped)
attr title "packet drop: address resolution failed, count"
scalar NCFSnNode.hostA.ipv4.ip packetDropAddressResolutionFailed:sum(packetBytes) 0
attr interpolationmode none
attr source packetDropReasonIsAddressResolutionFailed(packetDropped)
attr title "packet drop: address resolution failed, sum(packetBytes)"
scalar NCFSnNode.hostA.ipv4.ip packetDropHopLimitReached:count 0
attr interpolationmode none
attr source packetDropReasonIsHopLimitReached(packetDropped)
attr title "packet drop: hop limit reached, count"
scalar NCFSnNode.hostA.ipv4.ip packetDropHopLimitReached:sum(packetBytes) 0
attr interpolationmode none
attr source packetDropReasonIsHopLimitReached(packetDropped)
attr title "packet drop: hop limit reached, sum(packetBytes)"
scalar NCFSnNode.hostA.ipv4.ip packetDropForwardingDisabled:count 0
attr interpolationmode none
attr source packetDropReasonIsForwardingDisabled(packetDropped)
attr title "packet drop: forwarding disabled, count"
scalar NCFSnNode.hostA.ipv4.ip packetDropForwardingDisabled:sum(packetBytes) 0
attr interpolationmode none
attr source packetDropReasonIsForwardingDisabled(packetDropped)
attr title "packet drop: forwarding disabled, sum(packetBytes)"
scalar NCFSnNode.hostA.ipv4.ip packetDropNoInterfaceFound:count 0
attr interpolationmode none
attr source packetDropReasonIsNoInterfaceFound(packetDropped)
attr title "packet drop: no interface found, count"
scalar NCFSnNode.hostA.ipv4.ip packetDropNoInterfaceFound:sum(packetBytes) 0
attr interpolationmode none
attr source packetDropReasonIsNoInterfaceFound(packetDropped)
attr title "packet drop: no interface found, sum(packetBytes)"
scalar NCFSnNode.hostA.ipv4.ip packetDropNoRouteFound:count 0
attr interpolationmode none
attr source packetDropReasonIsNoRouteFound(packetDropped)
attr title "packet drop: no route found, count"
scalar NCFSnNode.hostA.ipv4.ip packetDropNoRouteFound:sum(packetBytes) 0
attr interpolationmode none
attr source packetDropReasonIsNoRouteFound(packetDropped)
attr title "packet drop: no route found, sum(packetBytes)"
scalar NCFSnNode.hostA.ipv4.ip packetDropUndefined:count 0
attr interpolationmode none
attr source packetDropReasonIsUndefined(packetDropped)
attr title "packet drop: undefined, count"
scalar NCFSnNode.hostA.ipv4.ip packetDropUndefined:sum(packetBytes) 0
attr interpolationmode none
attr source packetDropReasonIsUndefined(packetDropped)
attr title "packet drop: undefined, sum(packetBytes)"
scalar NCFSnNode.hostA.udp packetReceived:count 2159
attr interpolationmode none
attr source packetReceived
attr title "packets received, count"
scalar NCFSnNode.hostA.udp packetReceived:sum(packetBytes) 47498
attr interpolationmode none
attr source packetReceived
attr title "packets received, sum(packetBytes)"
scalar NCFSnNode.hostA.udp packetSent:count 990
attr interpolationmode none
attr source packetSent
attr title "packets sent, count"
scalar NCFSnNode.hostA.udp packetSent:sum(packetBytes) 21780
attr interpolationmode none
attr source packetSent
attr title "packets sent, sum(packetBytes)"
scalar NCFSnNode.hostA.udp passedUpPk:count 2159
attr interpolationmode none
attr source packetSentToUpper
attr title "packets passed up, count"
scalar NCFSnNode.hostA.udp droppedPkWrongPort:count 0
attr interpolationmode none
attr source packetDropReasonIsNoPortFound(packetDropped)
attr title "packets dropped (wrong port), count"
scalar NCFSnNode.hostA.udp droppedPkBadChecksum:count 0
attr interpolationmode none
attr source packetDropReasonIsIncorrectlyReceived(packetDropped)
attr title "packets dropped (checksum error), count"
scalar NCFSnNode.hostA.app[0] "packets sent" 0
scalar NCFSnNode.hostA.app[0] "packets received" 0
scalar NCFSnNode.hostA.app[0] packetReceived:count 0
attr interpolationmode none
attr source packetReceived
attr title "packets received, count"
scalar NCFSnNode.hostA.app[0] packetReceived:sum(packetBytes) 0
attr interpolationmode none
attr source packetReceived
attr title "packets received, sum(packetBytes)"
statistic NCFSnNode.hostA.app[0] rcvdPkLifetime:stats
field count 0
field mean nan
field stddev nan
field min nan
field max nan
field sum 0
field sqrsum 0
attr interpolationmode none
attr source dataAge(packetReceived)
attr title "received packet lifetime, stats"
attr unit s
scalar NCFSnNode.hostA.app[0] packetSent:count 0
attr interpolationmode none
attr source packetSent
attr title "packets sent, count"
scalar NCFSnNode.hostA.app[0] packetSent:sum(packetBytes) 0
attr interpolationmode none
attr source packetSent
attr title "packets sent, sum(packetBytes)"
scalar NCFSnNode.hostC[0].lo[0].lo rcvdPkFromHl:count 58
attr interpolationmode none
attr source packetReceivedFromUpper
attr title "packets received from higher layer, count"
scalar NCFSnNode.hostC[0].lo[0].lo rcvdPkFromHl:sum(packetBytes) 2436
attr interpolationmode none
attr source packetReceivedFromUpper
attr title "packets received from higher layer, sum(packetBytes)"
scalar NCFSnNode.hostC[0].lo[0].lo passedUpPk:count 58
attr interpolationmode none
attr source packetSentToUpper
attr title "packets passed to higher layer, count"
scalar NCFSnNode.hostC[0].lo[0].lo passedUpPk:sum(packetBytes) 2436
attr interpolationmode none
attr source packetSentToUpper
attr title "packets passed to higher layer, sum(packetBytes)"
scalar NCFSnNode.hostC[0].wlan[0].mac numRetry 0
scalar NCFSnNode.hostC[0].wlan[0].mac numSentWithoutRetry 0
scalar NCFSnNode.hostC[0].wlan[0].mac numGivenUp 0
scalar NCFSnNode.hostC[0].wlan[0].mac numCollision 0
scalar NCFSnNode.hostC[0].wlan[0].mac numSent 0
scalar NCFSnNode.hostC[0].wlan[0].mac numReceived 0
scalar NCFSnNode.hostC[0].wlan[0].mac numSentBroadcast 58
scalar NCFSnNode.hostC[0].wlan[0].mac numReceivedBroadcast 2100
scalar NCFSnNode.hostC[0].wlan[0].mac packetDropIncorrectlyReceived:count 0
attr interpolationmode none
attr source packetDropReasonIsIncorrectlyReceived(packetDropped)
attr title "packet drop: incorrectly received, count"
scalar NCFSnNode.hostC[0].wlan[0].mac packetDropIncorrectlyReceived:sum(packetBytes) 0
attr interpolationmode none
attr source packetDropReasonIsIncorrectlyReceived(packetDropped)
attr title "packet drop: incorrectly received, sum(packetBytes)"
scalar NCFSnNode.hostC[0].wlan[0].mac packetDropNotAddressedToUs:count 0
attr interpolationmode none
attr source packetDropReasonIsNotAddressedToUs(packetDropped)
attr title "packet drop: not addressed to us, count"
scalar NCFSnNode.hostC[0].wlan[0].mac packetDropNotAddressedToUs:sum(packetBytes) 0
attr interpolationmode none
attr source packetDropReasonIsNotAddressedToUs(packetDropped)
attr title "packet drop: not addressed to us, sum(packetBytes)"
scalar NCFSnNode.hostC[0].wlan[0].mac packetDropQueueOverflow:count 0
attr interpolationmode none
attr source packetDropReasonIsQueueOverflow(packetDropped)
attr title "packet drop: queue overflow, count"
scalar NCFSnNode.hostC[0].wlan[0].mac packetDropQueueOverflow:sum(packetBytes) 0
attr interpolationmode none
attr source packetDropReasonIsQueueOverflow(packetDropped)
attr title "packet drop: queue overflow, sum(packetBytes)"
scalar NCFSnNode.hostC[0].wlan[0].mac packetDropRetryLimitReached:count 0
attr interpolationmode none
attr source packetDropReasonIsRetryLimitReached(packetDropped)
attr title "packet drop: retry limit reached, count"
scalar NCFSnNode.hostC[0].wlan[0].mac packetDropRetryLimitReached:sum(packetBytes) 0
attr interpolationmode none
attr source packetDropReasonIsRetryLimitReached(packetDropped)
attr title "packet drop: retry limit reached, sum(packetBytes)"
scalar NCFSnNode.hostC[0].wlan[0].mac linkBroken:count 0
attr interpolationmode none
attr source linkBroken
attr title "link break, count"
statistic NCFSnNode.hostC[0].wlan[0].radio minSnir:histogram
field count 0
field mean nan
field stddev nan
field min nan
field max nan
field sum 0
field sqrsum 0
attr source minimumSnir(packetSentToUpper)
attr title "Min SNIR, histogram"
bin	-inf	0
bin	0	0
bin	1	0
statistic NCFSnNode.hostC[0].wlan[0].radio packetErrorRate:histogram
field count 2100
field mean 0.12047619047619
field stddev 0.32559508593571
field min 0
field max 1
field sum 253
field sqrsum 253
attr source packetErrorRate(packetSentToUpper)
attr title "Packet error rate, histogram"
bin	-inf	0
bin	0	1847
bin	1	253
bin	2	0
statistic NCFSnNode.hostC[0].wlan[0].radio bitErrorRate:histogram
field count 2100
field mean 0.12047619047619
field stddev 0.32559508593571
field min 0
field max 1
field sum 253
field sqrsum 253
attr source bitErrorRate(packetSentToUpper)
attr title "Bit error rate, histogram"
bin	-inf	0
bin	0	1847
bin	1	253
bin	2	0
statistic NCFSnNode.hostC[0].wlan[0].radio symbolErrorRate:histogram
field count 2100
field mean 0.12047619047619
field stddev 0.32559508593571
field min 0
field max 1
field sum 253
field sqrsum 253
attr source symbolErrorRate(packetSentToUpper)
attr title "Symbol error rate, histogram"
bin	-inf	0
bin	0	1847
bin	1	253
bin	2	0
scalar NCFSnNode.hostC[0].wlan[0].radio transmissionState:count 232
attr interpolationmode sample-hold
attr source transmissionStateChanged
attr title "Radio transmission state, count"
scalar NCFSnNode.hostC[0].wlan[0].radio receptionState:count 4583
attr interpolationmode sample-hold
attr source receptionStateChanged
attr title "Radio reception state, count"
scalar NCFSnNode.hostC[0].wlan[0].radio radioMode:count 119
attr interpolationmode sample-hold
attr source radioModeChanged
attr title "Radio mode, count"
scalar NCFSnNode.hostC[0].ipv4.ip packetDropAddressResolutionFailed:count 0
attr interpolationmode none
attr source packetDropReasonIsAddressResolutionFailed(packetDropped)
attr title "packet drop: address resolution failed, count"
scalar NCFSnNode.hostC[0].ipv4.ip packetDropAddressResolutionFailed:sum(packetBytes) 0
attr interpolationmode none
attr source packetDropReasonIsAddressResolutionFailed(packetDropped)
attr title "packet drop: address resolution failed, sum(packetBytes)"
scalar NCFSnNode.hostC[0].ipv4.ip packetDropHopLimitReached:count 0
attr interpolationmode none
attr source packetDropReasonIsHopLimitReached(packetDropped)
attr title "packet drop: hop limit reached, count"
scalar NCFSnNode.hostC[0].ipv4.ip packetDropHopLimitReached:sum(packetBytes) 0
attr interpolationmode none
attr source packetDropReasonIsHopLimitReached(packetDropped)
attr title "packet drop: hop limit reached, sum(packetBytes)"
scalar NCFSnNode.hostC[0].ipv4.ip packetDropForwardingDisabled:count 0
attr interpolationmode none
attr source packetDropReasonIsForwardingDisabled(packetDropped)
attr title "packet drop: forwarding disabled, count"
scalar NCFSnNode.hostC[0].ipv4.ip packetDropForwardingDisabled:sum(packetBytes) 0
attr interpolationmode none
attr source packetDropReasonIsForwardingDisabled(packetDropped)
attr title "packet drop: forwarding disabled, sum(packetBytes)"
scalar NCFSnNode.hostC[0].ipv4.ip packetDropNoInterfaceFound:count 0
attr interpolationmode none
attr source packetDropReasonIsNoInterfaceFound(packetDropped)
attr title "packet drop: no interface found, count"
scalar NCFSnNode.hostC[0].ipv4.ip packetDropNoInterfaceFound:sum(packetBytes) 0
attr interpolationmode none
attr source packetDropReasonIsNoInterfaceFound(packetDropped)
attr title "packet drop: no interface found, sum(packetBytes)"
scalar NCFSnNode.hostC[0].ipv4.ip packetDropNoRouteFound:count 0
attr interpolationmode none
attr source packetDropReasonIsNoRouteFound(packetDropped)
attr title "packet drop: no route found, count"
scalar NCFSnNode.hostC[0].ipv4.ip packetDropNoRouteFound:sum(packetBytes) 0
attr interpolationmode none
attr source packetDropReasonIsNoRouteFound(packetDropped)
attr title "packet drop: no route found, sum(packetBytes)"
scalar NCFSnNode.hostC[0].ipv4.ip packetDropUndefined:count 0
attr interpolationmode none
attr source packetDropReasonIsUndefined(packetDropped)
attr title "packet drop: undefined, count"
scalar NCFSnNode.hostC[0].ipv4.ip packetDropUndefined:sum(packetBytes) 0
attr interpolationmode none
attr source packetDropReasonIsUndefined(packetDropped)
attr title "packet drop: undefined, sum(packetBytes)"
scalar NCFSnNode.hostC[0].udp packetReceived:count 2158
attr interpolationmode none
attr source packetReceived
attr title "packets received, count"
scalar NCFSnNode.hostC[0].udp packetReceived:sum(packetBytes) 47476
attr interpolationmode none
attr source packetReceived
attr title "packets received, sum(packetBytes)"
scalar NCFSnNode.hostC[0].udp packetSent:count 58
attr interpolationmode none
attr source packetSent
attr title "packets sent, count"
scalar NCFSnNode.hostC[0].udp packetSent:sum(packetBytes) 1276
attr interpolationmode none
attr source packetSent
attr title "packets sent, sum(packetBytes)"
scalar NCFSnNode.hostC[0].udp passedUpPk:count 2158
attr interpolationmode none
attr source packetSentToUpper
attr title "packets passed up, count"
scalar NCFSnNode.hostC[0].udp droppedPkWrongPort:count 0
attr interpolationmode none
attr source packetDropReasonIsNoPortFound(packetDropped)
attr title "packets dropped (wrong port), count"
scalar NCFSnNode.hostC[0].udp droppedPkBadChecksum:count 0
attr interpolationmode none
attr source packetDropReasonIsIncorrectlyReceived(packetDropped)
attr title "packets dropped (checksum error), count"
scalar NCFSnNode.hostC[0].app[0] "packets sent" 0
scalar NCFSnNode.hostC[0].app[0] "packets received" 99
scalar NCFSnNode.hostC[0].app[0] packetReceived:count 0
attr interpolationmode none
attr source packetReceived
attr title "packets received, count"
scalar NCFSnNode.hostC[0].app[0] packetReceived:sum(packetBytes) 0
attr interpolationmode none
attr source packetReceived
attr title "packets received, sum(packetBytes)"
statistic NCFSnNode.hostC[0].app[0] rcvdPkLifetime:stats
field count 0
field mean nan
field stddev nan
field min nan
field max nan
field sum 0
field sqrsum 0
attr interpolationmode none
attr source dataAge(packetReceived)
attr title "received packet lifetime, stats"
attr unit s
scalar NCFSnNode.hostC[0].app[0] packetSent:count 0
attr interpolationmode none
attr source packetSent
attr title "packets sent, count"
scalar NCFSnNode.hostC[0].app[0] packetSent:sum(packetBytes) 0
attr interpolationmode none
attr source packetSent
attr title "packets sent, sum(packetBytes)"
scalar NCFSnNode.hostC[1].lo[0].lo rcvdPkFromHl:count 60
attr interpolationmode none
attr source packetReceivedFromUpper
attr title "packets received from higher layer, count"
scalar NCFSnNode.hostC[1].lo[0].lo rcvdPkFromHl:sum(packetBytes) 2520
attr interpolationmode none
attr source packetReceivedFromUpper
attr title "packets received from higher layer, sum(packetBytes)"
scalar NCFSnNode.hostC[1].lo[0].lo passedUpPk:count 60
attr interpolationmode none
attr source packetSentToUpper
attr title "packets passed to higher layer, count"
scalar NCFSnNode.hostC[1].lo[0].lo passedUpPk:sum(packetBytes) 2520
attr interpolationmode none
attr source packetSentToUpper
attr title "packets passed to higher layer, sum(packetBytes)"
scalar NCFSnNode.hostC[1].wlan[0].mac numRetry 0
scalar NCFSnNode.hostC[1].wlan[0].mac numSentWithoutRetry 0
scalar NCFSnNode.hostC[1].wlan[0].mac numGivenUp 0
scalar NCFSnNode.hostC[1].wlan[0].mac numCollision 0
scalar NCFSnNode.hostC[1].wlan[0].mac numSent 0
scalar NCFSnNode.hostC[1].wlan[0].mac numReceived 0
scalar NCFSnNode.hostC[1].wlan[0].mac numSentBroadcast 60
scalar NCFSnNode.hostC[1].wlan[0].mac numReceivedBroadcast 2097
scalar NCFSnNode.hostC[1].wlan[0].mac packetDropIncorrectlyReceived:count 0
attr interpolationmode none
attr source packetDropReasonIsIncorrectlyReceived(packetDropped)
attr title "packet drop: incorrectly received, count"
scalar NCFSnNode.hostC[1].wlan[0].mac packetDropIncorrectlyReceived:sum(packetBytes) 0
attr interpolationmode none
attr source packetDropReasonIsIncorrectlyReceived(packetDropped)
attr title "packet drop: incorrectly received, sum(packetBytes)"
scalar NCFSnNode.hostC[1].wlan[0].mac packetDropNotAddressedToUs:count 0
attr interpolationmode none
attr source packetDropReasonIsNotAddressedToUs(packetDropped)
attr title "packet drop: not addressed to us, count"
scalar NCFSnNode.hostC[1].wlan[0].mac packetDropNotAddressedToUs:sum(packetBytes) 0
attr interpolationmode none
attr source packetDropReasonIsNotAddressedToUs(packetDropped)
attr title "packet drop: not addressed to us, sum(packetBytes)"
scalar NCFSnNode.hostC[1].wlan[0].mac packetDropQueueOverflow:count 0
attr interpolationmode none
attr source packetDropReasonIsQueueOverflow(packetDropped)
attr title "packet drop: queue overflow, count"
scalar NCFSnNode.hostC[1].wlan[0].mac packetDropQueueOverflow:sum(packetBytes) 0
attr interpolationmode none
attr source packetDropReasonIsQueueOverflow(packetDropped)
attr title "packet drop: queue overflow, sum(packetBytes)"
scalar NCFSnNode.hostC[1].wlan[0].mac packetDropRetryLimitReached:count 0
attr interpolationmode none
attr source packetDropReasonIsRetryLimitReached(packetDropped)
attr title "packet drop: retry limit reached, count"
scalar NCFSnNode.hostC[1].wlan[0].mac packetDropRetryLimitReached:sum(packetBytes) 0
attr interpolationmode none
attr source packetDropReasonIsRetryLimitReached(packetDropped)
attr title "packet drop: retry limit reached, sum(packetBytes)"
scalar NCFSnNode.hostC[1].wlan[0].mac linkBroken:count 0
attr interpolationmode none
attr source linkBroken
attr title "link break, count"
statistic NCFSnNode.hostC[1].wlan[0].radio minSnir:histogram
field count 0
field mean nan
field stddev nan
field min nan
field max nan
field sum 0
field sqrsum 0
attr source minimumSnir(packetSentToUpper)
attr title "Min SNIR, histogram"
bin	-inf	0
bin	0	0
bin	1	0
statistic NCFSnNode.hostC[1].wlan[0].radio packetErrorRate:histogram
field count 2097
field mean 0.11921793037673
field stddev 0.3241220653799
field min 0
field max 1
field sum 250
field sqrsum 250
attr source packetErrorRate(packetSentToUpper)
attr title "Packet error rate, histogram"
bin	-inf	0
bin	0	1847
bin	1	250
bin	2	0
statistic NCFSnNode.hostC[1].wlan[0].radio bitErrorRate:histogram
field count 2097
field mean 0.11921793037673
field stddev 0.3241220653799
field min 0
field max 1
field sum 250
field sqrsum 250
attr source bitErrorRate(packetSentToUpper)
attr title "Bit error rate, histogram"
bin	-inf	0
bin	0	1847
bin	1	250
bin	2	0
statistic NCFSnNode.hostC[1].wlan[0].radio symbolErrorRate:histogram
field count 2097
field mean 0.11921793037673
field stddev 0.3241220653799
field min 0
field max 1
field sum 250
field sqrsum 250
attr source symbolErrorRate(packetSentToUpper)
attr title "Symbol error rate, histogram"
bin	-inf	0
bin	0	1847
bin	1	250
bin	2	0
scalar NCFSnNode.hostC[1].wlan[0].radio transmissionState:count 240
attr interpolationmode sample-hold
attr source transmissionStateChanged
attr title "Radio transmission state, count"
scalar NCFSnNode.hostC[1].wlan[0].radio receptionState:count 4582
attr interpolationmode sample-hold
attr source receptionStateChanged
attr title "Radio reception state, count"
scalar NCFSnNode.hostC[1].wlan[0].radio radioMode:count 123
attr interpolationmode sample-hold
attr source radioModeChanged
attr title "Radio mode, count"
scalar NCFSnNode.hostC[1].ipv4.ip packetDropAddressResolutionFailed:count 0
attr interpolationmode none
attr source packetDropReasonIsAddressResolutionFailed(packetDropped)
attr title "packet drop: address resolution failed, count"
scalar NCFSnNode.hostC[1].ipv4.ip packetDropAddressResolutionFailed:sum(packetBytes) 0
attr interpolationmode none
attr source packetDropReasonIsAddressResolutionFailed(packetDropped)
attr title "packet drop: address resolution failed, sum(packetBytes)"
scalar NCFSnNode.hostC[1].ipv4.ip packetDropHopLimitReached:count 0
attr interpolationmode none
attr source packetDropReasonIsHopLimitReached(packetDropped)
attr title "packet drop: hop limit reached, count"
scalar NCFSnNode.hostC[1].ipv4.ip packetDropHopLimitReached:sum(packetBytes) 0
attr interpolationmode none
attr source packetDropReasonIsHopLimitReached(packetDropped)
attr title "packet drop: hop limit reached, sum(packetBytes)"
scalar NCFSnNode.hostC[1].ipv4.ip packetDropForwardingDisabled:count 0
attr interpolationmode none
attr source packetDropReasonIsForwardingDisabled(packetDropped)
attr title "packet drop: forwarding disabled, count"
scalar NCFSnNode.hostC[1].ipv4.ip packetDropForwardingDisabled:sum(packetBytes) 0
attr interpolationmode none
attr source packetDropReasonIsForwardingDisabled(packetDropped)
attr title "packet drop: forwarding disabled, sum(packetBytes)"
scalar NCFSnNode.hostC[1].ipv4.ip packetDropNoInterfaceFound:count 0
attr interpolationmode none
attr source packetDropReasonIsNoInterfaceFound(packetDropped)
attr title "packet drop: no interface found, count"
scalar NCFSnNode.hostC[1].ipv4.ip packetDropNoInterfaceFound:sum(packetBytes) 0
attr interpolationmode none
attr source packetDropReasonIsNoInterfaceFound(packetDropped)
attr title "packet drop: no interface found, sum(packetBytes)"
scalar NCFSnNode.hostC[1].ipv4.ip packetDropNoRouteFound:count 0
attr interpolationmode none
attr source packetDropReasonIsNoRouteFound(packetDropped)
attr title "packet drop: no route found, count"
scalar NCFSnNode.hostC[1].ipv4.ip packetDropNoRouteFound:sum(packetBytes) 0
attr interpolationmode none
attr source packetDropReasonIsNoRouteFound(packetDropped)
attr title "packet drop: no route found, sum(packetBytes)"
scalar NCFSnNode.hostC[1].ipv4.ip packetDropUndefined:count 0
attr interpolationmode none
attr source packetDropReasonIsUndefined(packetDropped)
attr title "packet drop: undefined, count"
scalar NCFSnNode.hostC[1].ipv4.ip packetDropUndefined:sum(packetBytes) 0
attr interpolationmode none
attr source packetDropReasonIsUndefined(packetDropped)
attr title "packet drop: undefined, sum(packetBytes)"
scalar NCFSnNode.hostC[1].udp packetReceived:count 2157
attr interpolationmode none
attr source packetReceived
attr title "packets received, count"
scalar NCFSnNode.hostC[1].udp packetReceived:sum(packetBytes) 47454
attr interpolationmode none
attr source packetReceived
attr title "packets received, sum(packetBytes)"
scalar NCFSnNode.hostC[1].udp packetSent:count 60
attr interpolationmode none
attr source packetSent
attr title "packets sent, count"
scalar NCFSnNode.hostC[1].udp packetSent:sum(packetBytes) 1320
attr interpolationmode none
attr source packetSent
attr title "packets sent, sum(packetBytes)"
scalar NCFSnNode.hostC[1].udp passedUpPk:count 2157
attr interpolationmode none
attr source packetSentToUpper
attr title "packets passed up, count"
scalar NCFSnNode.hostC[1].udp droppedPkWrongPort:count 0
attr interpolationmode none
attr source packetDropReasonIsNoPortFound(packetDropped)
attr title "packets dropped (wrong port), count"
scalar NCFSnNode.hostC[1].udp droppedPkBadChecksum:count 0
attr interpolationmode none
attr source packetDropReasonIsIncorrectlyReceived(packetDropped)
attr title "packets dropped (checksum error), count"
scalar NCFSnNode.hostC[1].app[0] "packets sent" 0
scalar NCFSnNode.hostC[1].app[0] "packets received" 99
scalar NCFSnNode.hostC[1].app[0] packetReceived:count 0
attr interpolationmode none
attr source packetReceived
attr title "packets received, count"
scalar NCFSnNode.hostC[1].app[0] packetReceived:sum(packetBytes) 0
attr interpolationmode none
attr source packetReceived
attr title "packets received, sum(packetBytes)"
statistic NCFSnNode.hostC[1].app[0] rcvdPkLifetime:stats
field count 0
field mean nan
field stddev nan
field min nan
field max nan
field sum 0
field sqrsum 0
attr interpolationmode none
attr source dataAge(packetReceived)
attr title "received packet lifetime, stats"
attr unit s
scalar NCFSnNode.hostC[1].app[0] packetSent:count 0
attr interpolationmode none
attr source packetSent
attr title "packets sent, count"
scalar NCFSnNode.hostC[1].app[0] packetSent:sum(packetBytes) 0
attr interpolationmode none
attr source packetSent
attr title "packets sent, sum(packetBytes)"
scalar NCFSnNode.hostC[2].lo[0].lo rcvdPkFromHl:count 57
attr interpolationmode none
attr source packetReceivedFromUpper
attr title "packets received from higher layer, count"
scalar NCFSnNode.hostC[2].lo[0].lo rcvdPkFromHl:sum(packetBytes) 2394
attr interpolationmode none
attr source packetReceivedFromUpper
attr title "packets received from higher layer, sum(packetBytes)"
scalar NCFSnNode.hostC[2].lo[0].lo passedUpPk:count 57
attr interpolationmode none
attr source packetSentToUpper
attr title "packets passed to higher layer, count"
scalar NCFSnNode.hostC[2].lo[0].lo passedUpPk:sum(packetBytes) 2394
attr interpolationmode none
attr source packetSentToUpper
attr title "packets passed to higher layer, sum(packetBytes)"
scalar NCFSnNode.hostC[2].wlan[0].mac numRetry 0
scalar NCFSnNode.hostC[2].wlan[0].mac numSentWithoutRetry 0
scalar NCFSnNode.hostC[2].wlan[0].mac numGivenUp 0
scalar NCFSnNode.hostC[2].wlan[0].mac numCollision 0
scalar NCFSnNode.hostC[2].wlan[0].mac numSent 0
scalar NCFSnNode.hostC[2].wlan[0].mac numReceived 0
scalar NCFSnNode.hostC[2].wlan[0].mac numSentBroadcast 57
scalar NCFSnNode.hostC[2].wlan[0].mac numReceivedBroadcast 2100
scalar NCFSnNode.hostC[2].wlan[0].mac packetDropIncorrectlyReceived:count 0
attr interpolationmode none
attr source packetDropReasonIsIncorrectlyReceived(packetDropped)
attr title "packet drop: incorrectly received, count"
scalar NCFSnNode.hostC[2].wlan[0].mac packetDropIncorrectlyReceived:sum(packetBytes) 0
attr interpolationmode none
attr source packetDropReasonIsIncorrectlyReceived(packetDropped)
attr title "packet drop: incorrectly received, sum(packetBytes)"
scalar NCFSnNode.hostC[2].wlan[0].mac packetDropNotAddressedToUs:count 0
attr interpolationmode none
attr source packetDropReasonIsNotAddressedToUs(packetDropped)
attr title "packet drop: not addressed to us, count"
scalar NCFSnNode.hostC[2].wlan[0].mac packetDropNotAddressedToUs:sum(packetBytes) 0
attr interpolationmode none
attr source packetDropReasonIsNotAddressedToUs(packetDropped)
attr title "packet drop: not addressed to us, sum(packetBytes)"
scalar NCFSnNode.hostC[2].wlan[0].mac packetDropQueueOverflow:count 0
attr interpolationmode none
attr source packetDropReasonIsQueueOverflow(packetDropped)
attr title "packet drop: queue overflow, count"
scalar NCFSnNode.hostC[2].wlan[0].mac packetDropQueueOverflow:sum(packetBytes) 0
attr interpolationmode none
attr source packetDropReasonIsQueueOverflow(packetDropped)
attr title "packet drop: queue overflow, sum(packetBytes)"
scalar NCFSnNode.hostC[2].wlan[0].mac packetDropRetryLimitReached:count 0
attr interpolationmode none
attr source packetDropReasonIsRetryLimitReached(packetDropped)
attr title "packet drop: retry limit reached, count"
scalar NCFSnNode.hostC[2].wlan[0].mac packetDropRetryLimitReached:sum(packetBytes) 0
attr interpolationmode none
attr source packetDropReasonIsRetryLimitReached(packetDropped)
attr title "packet drop: retry limit reached, sum(packetBytes)"
scalar NCFSnNode.hostC[2].wlan[0].mac linkBroken:count 0
attr interpolationmode none
attr source linkBroken
attr title "link break, count"
statistic NCFSnNode.hostC[2].wlan[0].radio minSnir:histogram
field count 0
field mean nan
field stddev nan
field min nan
field max nan
field sum 0
field sqrsum 0
attr source minimumSnir(packetSentToUpper)
attr title "Min SNIR, histogram"
bin	-inf	0
bin	0	0
bin	1	0
statistic NCFSnNode.hostC[2].wlan[0].radio packetErrorRate:histogram
field count 2100
field mean 0.12380952380952
field stddev 0.32944257120551
field min 0
field max 1
field sum 260
field sqrsum 260
attr source packetErrorRate(packetSentToUpper)
attr title "Packet error rate, histogram"
bin	-inf	0
bin	0	1840
bin	1	260
bin	2	0
statistic NCFSnNode.hostC[2].wlan[0].radio bitErrorRate:histogram
field count 2100
field mean 0.12380952380952
field stddev 0.32944257120551
field min 0
field max 1
field sum 260
field sqrsum 260
attr source bitErrorRate(packetSentToUpper)
attr title "Bit error rate, histogram"
bin	-inf	0
bin	0	1840
bin	1	260
bin	2	0
statistic NCFSnNode.hostC[2].wlan[0].radio symbolErrorRate:histogram
field count 2100
field mean 0.12380952380952
field stddev 0.32944257120551
field min 0
field max 1
field sum 260
field sqrsum 260
attr source symbolErrorRate(packetSentToUpper)
attr title "Symbol error rate, histogram"
bin	-inf	0
bin	0	1840
bin	1	260
bin	2	0
scalar NCFSnNode.hostC[2].wlan[0].radio transmissionState:count 228
attr interpolationmode sample-hold
attr source transmissionStateChanged
attr title "Radio transmission state, count"
scalar NCFSnNode.hostC[2].wlan[0].radio receptionState:count 4582
attr interpolationmode sample-hold
attr source receptionStateChanged
attr title "Radio reception state, count"
scalar NCFSnNode.hostC[2].wlan[0].radio radioMode:count 117
attr interpolationmode sample-hold
attr source radioModeChanged
attr title "Radio mode, count"
scalar NCFSnNode.hostC[2].ipv4.ip packetDropAddressResolutionFailed:count 0
attr interpolationmode none
attr source packetDropReasonIsAddressResolutionFailed(packetDropped)
attr title "packet drop: address resolution failed, count"
scalar NCFSnNode.hostC[2].ipv4.ip packetDropAddressResolutionFailed:sum(packetBytes) 0
attr interpolationmode none
attr source packetDropReasonIsAddressResolutionFailed(packetDropped)
attr title "packet drop: address resolution failed, sum(packetBytes)"
scalar NCFSnNode.hostC[2].ipv4.ip packetDropHopLimitReached:count 0
attr interpolationmode none
attr source packetDropReasonIsHopLimitReached(packetDropped)
attr title "packet drop: hop limit reached, count"
scalar NCFSnNode.hostC[2].ipv4.ip packetDropHopLimitReached:sum(packetBytes) 0
attr interpolationmode none
attr source packetDropReasonIsHopLimitReached(packetDropped)
attr title "packet drop: hop limit reached, sum(packetBytes)"
scalar NCFSnNode.hostC[2].ipv4.ip packetDropForwardingDisabled:count 0
attr interpolationmode none
attr source packetDropReasonIsForwardingDisabled(packetDropped)
attr title "packet drop: forwarding disabled, count"
scalar NCFSnNode.hostC[2].ipv4.ip packetDropForwardingDisabled:sum(packetBytes) 0
attr interpolationmode none
attr source packetDropReasonIsForwardingDisabled(packetDropped)
attr title "packet drop: forwarding disabled, sum(packetBytes)"
scalar NCFSnNode.hostC[2].ipv4.ip packetDropNoInterfaceFound:count 0
attr interpolationmode none
attr source packetDropReasonIsNoInterfaceFound(packetDropped)
attr title "packet drop: no interface found, count"
scalar NCFSnNode.hostC[2].ipv4.ip packetDropNoInterfaceFound:sum(packetBytes) 0
attr interpolationmode none
attr source packetDropReasonIsNoInterfaceFound(packetDropped)
attr title "packet drop: no interface found, sum(packetBytes)"
scalar NCFSnNode.hostC[2].ipv4.ip packetDropNoRouteFound:count 0
attr interpolationmode none
attr source packetDropReasonIsNoRouteFound(packetDropped)
attr title "packet drop: no route found, count"
scalar NCFSnNode.hostC[2].ipv4.ip packetDropNoRouteFound:sum(packetBytes) 0
attr interpolationmode none
attr source packetDropReasonIsNoRouteFound(packetDropped)
attr title "packet drop: no route found, sum(packetBytes)"
scalar NCFSnNode.hostC[2].ipv4.ip packetDropUndefined:count 0
attr interpolationmode none
attr source packetDropReasonIsUndefined(packetDropped)
attr title "packet drop: undefined, count"
scalar NCFSnNode.hostC[2].ipv4.ip packetDropUndefined:sum(packetBytes) 0
attr interpolationmode none
attr source packetDropReasonIsUndefined(packetDropped)
attr title "packet drop: undefined, sum(packetBytes)"
scalar NCFSnNode.hostC[2].udp packetReceived:count 2157
attr interpolationmode none
attr source packetReceived
attr title "packets received, count"
scalar NCFSnNode.hostC[2].udp packetReceived:sum(packetBytes) 47454
attr interpolationmode none
attr source packetReceived
attr title "packets received, sum(packetBytes)"
scalar NCFSnNode.hostC[2].udp packetSent:count 57
attr interpolationmode none
attr source packetSent
attr title "packets sent, count"
scalar NCFSnNode.hostC[2].udp packetSent:sum(packetBytes) 1254
attr interpolationmode none
attr source packetSent
attr title "packets sent, sum(packetBytes)"
scalar NCFSnNode.hostC[2].udp passedUpPk:count 2157
attr interpolationmode none
attr source packetSentToUpper
attr title "packets passed up, count"
scalar NCFSnNode.hostC[2].udp droppedPkWrongPort:count 0
attr interpolationmode none
attr source packetDropReasonIsNoPortFound(packetDropped)
attr title "packets dropped (wrong port), count"
scalar NCFSnNode.hostC[2].udp droppedPkBadChecksum:count 0
attr interpolationmode none
attr source packetDropReasonIsIncorrectlyReceived(packetDropped)
attr title "packets dropped (checksum error), count"
scalar NCFSnNode.hostC[2].app[0] "packets sent" 0
scalar NCFSnNode.hostC[2].app[0] "packets received" 99
scalar NCFSnNode.hostC[2].app[0] packetReceived:count 0
attr interpolationmode none
attr source packetReceived
attr title "packets received, count"
scalar NCFSnNode.hostC[2].app[0] packetReceived:sum(packetBytes) 0
attr interpolationmode none
attr source packetReceived
attr title "packets received, sum(packetBytes)"
statistic NCFSnNode.hostC[2].app[0] rcvdPkLifetime:stats
field count 0
field mean nan
field stddev nan
field min nan
field max nan
field sum 0
field sqrsum 0
attr interpolationmode none
attr source dataAge(packetReceived)
attr title "received packet lifetime, stats"
attr unit s
scalar NCFSnNode.hostC[2].app[0] packetSent:count 0
attr interpolationmode none
attr source packetSent
attr title "packets sent, count"
scalar NCFSnNode.hostC[2].app[0] packetSent:sum(packetBytes) 0
attr interpolationmode none
attr source packetSent
attr title "packets sent, sum(packetBytes)"
scalar NCFSnNode.hostC[3].lo[0].lo rcvdPkFromHl:count 60
attr interpolationmode none
attr source packetReceivedFromUpper
attr title "packets received from higher layer, count"
scalar NCFSnNode.hostC[3].lo[0].lo rcvdPkFromHl:sum(packetBytes) 2520
attr interpolationmode none
attr source packetReceivedFromUpper
attr title "packets received from higher layer, sum(packetBytes)"
scalar NCFSnNode.hostC[3].lo[0].lo passedUpPk:count 60
attr interpolationmode none
attr source packetSentToUpper
attr title "packets passed to higher layer, count"
scalar NCFSnNode.hostC[3].lo[0].lo passedUpPk:sum(packetBytes) 2520
attr interpolationmode none
attr source packetSentToUpper
attr title "packets passed to higher layer, sum(packetBytes)"
scalar NCFSnNode.hostC[3].wlan[0].mac numRetry 0
scalar NCFSnNode.hostC[3].wlan[0].mac numSentWithoutRetry 0
scalar NCFSnNode.hostC[3].wlan[0].mac numGivenUp 0
scalar NCFSnNode.hostC[3].wlan[0].mac numCollision 0
scalar NCFSnNode.hostC[3].wlan[0].mac numSent 0
scalar NCFSnNode.hostC[3].wlan[0].mac numReceived 0
scalar NCFSnNode.hostC[3].wlan[0].mac numSentBroadcast 60
scalar NCFSnNode.hostC[3].wlan[0].mac numReceivedBroadcast 2068
scalar NCFSnNode.hostC[3].wlan[0].mac packetDropIncorrectlyReceived:count 0
attr interpolationmode none
attr source packetDropReasonIsIncorrectlyReceived(packetDropped)
attr title "packet drop: incorrectly received, count"
scalar NCFSnNode.hostC[3].wlan[0].mac packetDropIncorrectlyReceived:sum(packetBytes) 0
attr interpolationmode none
attr source packetDropReasonIsIncorrectlyReceived(packetDropped)
attr title "packet drop: incorrectly received, sum(packetBytes)"
scalar NCFSnNode.hostC[3].wlan[0].mac packetDropNotAddressedToUs:count 0
attr interpolationmode none
attr source packetDropReasonIsNotAddressedToUs(packetDropped)
attr title "packet drop: not addressed to us, count"
scalar NCFSnNode.hostC[3].wlan[0].mac packetDropNotAddressedToUs:sum(packetBytes) 0
attr interpolationmode none
attr source packetDropReasonIsNotAddressedToUs(packetDropped)
attr title "packet drop: not addressed to us, sum(packetBytes)"
scalar NCFSnNode.hostC[3].wlan[0].mac packetDropQueueOverflow:count 0
attr interpolationmode none
attr source packetDropReasonIsQueueOverflow(packetDropped)
attr title "packet drop: queue overflow, count"
scalar NCFSnNode.hostC[3].wlan[0].mac packetDropQueueOverflow:sum(packetBytes) 0
attr interpolationmode none
attr source packetDropReasonIsQueueOverflow(packetDropped)
attr title "packet drop: queue overflow, sum(packetBytes)"
scalar NCFSnNode.hostC[3].wlan[0].mac packetDropRetryLimitReached:count 0
attr interpolationmode none
attr source packetDropReasonIsRetryLimitReached(packetDropped)
attr title "packet drop: retry limit reached, count"
scalar NCFSnNode.hostC[3].wlan[0].mac packetDropRetryLimitReached:sum(packetBytes) 0
attr interpolationmode none
attr source packetDropReasonIsRetryLimitReached(packetDropped)
attr title "packet drop: retry limit reached, sum(packetBytes)"
scalar NCFSnNode.hostC[3].wlan[0].mac linkBroken:count 0
attr interpolationmode none
attr source linkBroken
attr title "link break, count"
statistic NCFSnNode.hostC[3].wlan[0].radio minSnir:histogram
field count 0
field mean nan
field stddev nan
field min nan
field max nan
field sum 0
field sqrsum 0
attr source minimumSnir(packetSentToUpper)
attr title "Min SNIR, histogram"
bin	-inf	0
bin	0	0
bin	1	0
statistic NCFSnNode.hostC[3].wlan[0].radio packetErrorRate:histogram
field count 2068
field mean 0.11121856866538
field stddev 0.31447864966757
field min 0
field max 1
field sum 230
field sqrsum 230
attr source packetErrorRate(packetSentToUpper)
attr title "Packet error rate, histogram"
bin	-inf	0
bin	0	1838
bin	1	230
bin	2	0
statistic NCFSnNode.hostC[3].wlan[0].radio bitErrorRate:histogram
field count 2068
field mean 0.11121856866538
field stddev 0.31447864966757
field min 0
field max 1
field sum 230
field sqrsum 230
attr source bitErrorRate(packetSentToUpper)
attr title "Bit error rate, histogram"
bin	-inf	0
bin	0	1838
bin	1	230
bin	2	0
statistic NCFSnNode.hostC[3].wlan[0].radio symbolErrorRate:histogram
field count 2068
field mean 0.11121856866538
field stddev 0.31447864966757
field min 0
field max 1
field sum 230
field sqrsum 230
attr source symbolErrorRate(packetSentToUpper)
attr title "Symbol error rate, histogram"
bin	-inf	0
bin	0	1838
bin	1	230
bin	2	0
scalar NCFSnNode.hostC[3].wlan[0].radio transmissionState:count 240
attr interpolationmode sample-hold
attr source transmissionStateChanged
attr title "Radio transmission state, count"
scalar NCFSnNode.hostC[3].wlan[0].radio receptionState:count 4504
attr interpolationmode sample-hold
attr source receptionStateChanged
attr title "Radio reception state, count"
scalar NCFSnNode.hostC[3].wlan[0].radio radioMode:count 123
attr interpolationmode sample-hold
attr source radioModeChanged
attr title "Radio mode, count"
scalar NCFSnNode.hostC[3].ipv4.ip packetDropAddressResolutionFailed:count 0
attr interpolationmode none
attr source packetDropReasonIsAddressResolutionFailed(packetDropped)
attr title "packet drop: address resolution failed, count"
scalar NCFSnNode.hostC[3].ipv4.ip packetDropAddressResolutionFailed:sum(packetBytes) 0
attr interpolationmode none
attr source packetDropReasonIsAddressResolutionFailed(packetDropped)
attr title "packet drop: address resolution failed, sum(packetBytes)"
scalar NCFSnNode.hostC[3].ipv4.ip packetDropHopLimitReached:count 0
attr interpolationmode none
attr source packetDropReasonIsHopLimitReached(packetDropped)
attr title "packet drop: hop limit reached, count"
scalar NCFSnNode.hostC[3].ipv4.ip packetDropHopLimitReached:sum(packetBytes) 0
attr interpolationmode none
attr source packetDropReasonIsHopLimitReached(packetDropped)
attr title "packet drop: hop limit reached, sum(packetBytes)"
scalar NCFSnNode.hostC[3].ipv4.ip packetDropForwardingDisabled:count 0
attr interpolationmode none
attr source packetDropReasonIsForwardingDisabled(packetDropped)
attr title "packet drop: forwarding disabled, count"
scalar NCFSnNode.hostC[3].ipv4.ip packetDropForwardingDisabled:sum(packetBytes) 0
attr interpolationmode none
attr source packetDropReasonIsForwardingDisabled(packetDropped)
attr title "packet drop: forwarding disabled, sum(packetBytes)"
scalar NCFSnNode.hostC[3].ipv4.ip packetDropNoInterfaceFound:count 0
attr interpolationmode none
attr source packetDropReasonIsNoInterfaceFound(packetDropped)
attr title "packet drop: no interface found, count"
scalar NCFSnNode.hostC[3].ipv4.ip packetDropNoInterfaceFound:sum(packetBytes) 0
attr interpolationmode none
attr source packetDropReasonIsNoInterfaceFound(packetDropped)
attr title "packet drop: no interface found, sum(packetBytes)"
scalar NCFSnNode.hostC[3].ipv4.ip packetDropNoRouteFound:count 0
attr interpolationmode none
attr source packetDropReasonIsNoRouteFound(packetDropped)
attr title "packet drop: no route found, count"
scalar NCFSnNode.hostC[3].ipv4.ip packetDropNoRouteFound:sum(packetBytes) 0
attr interpolationmode none
attr source packetDropReasonIsNoRouteFound(packetDropped)
attr title "packet drop: no route found, sum(packetBytes)"
scalar NCFSnNode.hostC[3].ipv4.ip packetDropUndefined:count 0
attr interpolationmode none
attr source packetDropReasonIsUndefined(packetDropped)
attr title "packet drop: undefined, count"
scalar NCFSnNode.hostC[3].ipv4.ip packetDropUndefined:sum(packetBytes) 0
attr interpolationmode none
attr source packetDropReasonIsUndefined(packetDropped)
attr title "packet drop: undefined, sum(packetBytes)"
scalar NCFSnNode.hostC[3].udp packetReceived:count 2128
attr interpolationmode none
attr source packetReceived
attr title "packets received, count"
scalar NCFSnNode.hostC[3].udp packetReceived:sum(packetBytes) 46816
attr interpolationmode none
attr source packetReceived
attr title "packets received, sum(packetBytes)"
scalar NCFSnNode.hostC[3].udp packetSent:count 60
attr interpolationmode none
attr source packetSent
attr title "packets sent, count"
scalar NCFSnNode.hostC[3].udp packetSent:sum(packetBytes) 1320
attr interpolationmode none
attr source packetSent
attr title "packets sent, sum(packetBytes)"
scalar NCFSnNode.hostC[3].udp passedUpPk:count 2128
attr interpolationmode none
attr source packetSentToUpper
attr title "packets passed up, count"
scalar NCFSnNode.hostC[3].udp droppedPkWrongPort:count 0
attr interpolationmode none
attr source packetDropReasonIsNoPortFound(packetDropped)
attr title "packets dropped (wrong port), count"
scalar NCFSnNode.hostC[3].udp droppedPkBadChecksum:count 0
attr interpolationmode none
attr source packetDropReasonIsIncorrectlyReceived(packetDropped)
attr title "packets dropped (checksum error), count"
scalar NCFSnNode.hostC[3].app[0] "packets sent" 0
scalar NCFSnNode.hostC[3].app[0] "packets received" 99
scalar NCFSnNode.hostC[3].app[0] packetReceived:count 0
attr interpolationmode none
attr source packetReceived
attr title "packets received, count"
scalar NCFSnNode.hostC[3].app[0] packetReceived:sum(packetBytes) 0
attr interpolationmode none
attr source packetReceived
attr title "packets received, sum(packetBytes)"
statistic NCFSnNode.hostC[3].app[0] rcvdPkLifetime:stats
field count 0
field mean nan
field stddev nan
field min nan
field max nan
field sum 0
field sqrsum 0
attr interpolationmode none
attr source dataAge(packetReceived)
attr title "received packet lifetime, stats"
attr unit s
scalar NCFSnNode.hostC[3].app[0] packetSent:count 0
attr interpolationmode none
attr source packetSent
attr title "packets sent, count"
scalar NCFSnNode.hostC[3].app[0] packetSent:sum(packetBytes) 0
attr interpolationmode none
attr source packetSent
attr title "packets sent, sum(packetBytes)"
scalar NCFSnNode.hostC[4].lo[0].lo rcvdPkFromHl:count 60
attr interpolationmode none
attr source packetReceivedFromUpper
attr title "packets received from higher layer, count"
scalar NCFSnNode.hostC[4].lo[0].lo rcvdPkFromHl:sum(packetBytes) 2520
attr interpolationmode none
attr source packetReceivedFromUpper
attr title "packets received from higher layer, sum(packetBytes)"
scalar NCFSnNode.hostC[4].lo[0].lo passedUpPk:count 60
attr interpolationmode none
attr source packetSentToUpper
attr title "packets passed to higher layer, count"
scalar NCFSnNode.hostC[4].lo[0].lo passedUpPk:sum(packetBytes) 2520
attr interpolationmode none
attr source packetSentToUpper
attr title "packets passed to higher layer, sum(packetBytes)"
scalar NCFSnNode.hostC[4].wlan[0].mac numRetry 0
scalar NCFSnNode.hostC[4].wlan[0].mac numSentWithoutRetry 0
scalar NCFSnNode.hostC[4].wlan[0].mac numGivenUp 0
scalar NCFSnNode.hostC[4].wlan[0].mac numCollision 0
scalar NCFSnNode.hostC[4].wlan[0].mac numSent 0
scalar NCFSnNode.hostC[4].wlan[0].mac numReceived 0
scalar NCFSnNode.hostC[4].wlan[0].mac numSentBroadcast 60
scalar NCFSnNode.hostC[4].wlan[0].mac numReceivedBroadcast 2098
scalar NCFSnNode.hostC[4].wlan[0].mac packetDropIncorrectlyReceived:count 0
attr interpolationmode none
attr source packetDropReasonIsIncorrectlyReceived(packetDropped)
attr title "packet drop: incorrectly received, count"
scalar NCFSnNode.hostC[4].wlan[0].mac packetDropIncorrectlyReceived:sum(packetBytes) 0
attr interpolationmode none
attr source packetDropReasonIsIncorrectlyReceived(packetDropped)
attr title "packet drop: incorrectly received, sum(packetBytes)"
scalar NCFSnNode.hostC[4].wlan[0].mac packetDropNotAddressedToUs:count 0
attr interpolationmode none
attr source packetDropReasonIsNotAddressedToUs(packetDropped)
attr title "packet drop: not addressed to us, count"
scalar NCFSnNode.hostC[4].wlan[0].mac packetDropNotAddressedToUs:sum(packetBytes) 0
attr interpolationmode none
attr source packetDropReasonIsNotAddressedToUs(packetDropped)
attr title "packet drop: not addressed to us, sum(packetBytes)"
scalar NCFSnNode.hostC[4].wlan[0].mac packetDropQueueOverflow:count 0
attr interpolationmode none
attr source packetDropReasonIsQueueOverflow(packetDropped)
attr title "packet drop: queue overflow, count"
scalar NCFSnNode.hostC[4].wlan[0].mac packetDropQueueOverflow:sum(packetBytes) 0
attr interpolationmode none
attr source packetDropReasonIsQueueOverflow(packetDropped)
attr title "packet drop: queue overflow, sum(packetBytes)"
scalar NCFSnNode.hostC[4].wlan[0].mac packetDropRetryLimitReached:count 0
attr interpolationmode none
attr source packetDropReasonIsRetryLimitReached(packetDropped)
attr title "packet drop: retry limit reached, count"
scalar NCFSnNode.hostC[4].wlan[0].mac packetDropRetryLimitReached:sum(packetBytes) 0
attr interpolationmode none
attr source packetDropReasonIsRetryLimitReached(packetDropped)
attr title "packet drop: retry limit reached, sum(packetBytes)"
scalar NCFSnNode.hostC[4].wlan[0].mac linkBroken:count 0
attr interpolationmode none
attr source linkBroken
attr title "link break, count"
statistic NCFSnNode.hostC[4].wlan[0].radio minSnir:histogram
field count 0
field mean nan
field stddev nan
field min nan
field max nan
field sum 0
field sqrsum 0
attr source minimumSnir(packetSentToUpper)
attr title "Min SNIR, histogram"
bin	-inf	0
bin	0	0
bin	1	0
statistic NCFSnNode.hostC[4].wlan[0].radio packetErrorRate:histogram
field count 2098
field mean 0.11820781696854
field stddev 0.32293100744698
field min 0
field max 1
field sum 248
field sqrsum 248
attr source packetErrorRate(packetSentToUpper)
attr title "Packet error rate, histogram"
bin	-inf	0
bin	0	1850
bin	1	248
bin	2	0
statistic NCFSnNode.hostC[4].wlan[0].radio bitErrorRate:histogram
field count 2098
field mean 0.11820781696854
field stddev 0.32293100744698
field min 0
field max 1
field sum 248
field sqrsum 248
attr source bitErrorRate(packetSentToUpper)
attr title "Bit error rate, histogram"
bin	-inf	0
bin	0	1850
bin	1	248
bin	2	0
statistic NCFSnNode.hostC[4].wlan[0].radio symbolErrorRate:histogram
field count 2098
field mean 0.11820781696854
field stddev 0.32293100744698
field min 0
field max 1
field sum 248
field sqrsum 248
attr source symbolErrorRate(packetSentToUpper)
attr title "Symbol error rate, histogram"
bin	-inf	0
bin	0	1850
bin	1	248
bin	2	0
scalar NCFSnNode.hostC[4].wlan[0].radio transmissionState:count 240
attr interpolationmode sample-hold
attr source transmissionStateChanged
attr title "Radio transmission state, count"
scalar NCFSnNode.hostC[4].wlan[0].radio receptionState:count 4583
attr interpolationmode sample-hold
attr source receptionStateChanged
attr title "Radio reception state, count"
scalar NCFSnNode.hostC[4].wlan[0].radio radioMode:count 123
attr interpolationmode sample-hold
attr source radioModeChanged
attr title "Radio mode, count"
scalar NCFSnNode.hostC[4].ipv4.ip packetDropAddressResolutionFailed:count 0
attr interpolationmode none
attr source packetDropReasonIsAddressResolutionFailed(packetDropped)
attr title "packet drop: address resolution failed, count"
scalar NCFSnNode.hostC[4].ipv4.ip packetDropAddressResolutionFailed:sum(packetBytes) 0
attr interpolationmode none
attr source packetDropReasonIsAddressResolutionFailed(packetDropped)
attr title "packet drop: address resolution failed, sum(packetBytes)"
scalar NCFSnNode.hostC[4].ipv4.ip packetDropHopLimitReached:count 0
attr interpolationmode none
attr source packetDropReasonIsHopLimitReached(packetDropped)
attr title "packet drop: hop limit reached, count"
scalar NCFSnNode.hostC[4].ipv4.ip packetDropHopLimitReached:sum(packetBytes) 0
attr interpolationmode none
attr source packetDropReasonIsHopLimitReached(packetDropped)
attr title "packet drop: hop limit reached, sum(packetBytes)"
scalar NCFSnNode.hostC[4].ipv4.ip packetDropForwardingDisabled:count 0
attr interpolationmode none
attr source packetDropReasonIsForwardingDisabled(packetDropped)
attr title "packet drop: forwarding disabled, count"
scalar NCFSnNode.hostC[4].ipv4.ip packetDropForwardingDisabled:sum(packetBytes) 0
attr interpolationmode none
attr source packetDropReasonIsForwardingDisabled(packetDropped)
attr title "packet drop: forwarding disabled, sum(packetBytes)"
scalar NCFSnNode.hostC[4].ipv4.ip packetDropNoInterfaceFound:count 0
attr interpolationmode none
attr source packetDropReasonIsNoInterfaceFound(packetDropped)
attr title "packet drop: no interface found, count"
scalar NCFSnNode.hostC[4].ipv4.ip packetDropNoInterfaceFound:sum(packetBytes) 0
attr interpolationmode none
attr source packetDropReasonIsNoInterfaceFound(packetDropped)
attr title "packet drop: no interface found, sum(packetBytes)"
scalar NCFSnNode.hostC[4].ipv4.ip packetDropNoRouteFound:count 0
attr interpolationmode none
attr source packetDropReasonIsNoRouteFound(packetDropped)
attr title "packet drop: no route found, count"
scalar NCFSnNode.hostC[4].ipv4.ip packetDropNoRouteFound:sum(packetBytes) 0
attr interpolationmode none
attr source packetDropReasonIsNoRouteFound(packetDropped)
attr title "packet drop: no route found, sum(packetBytes)"
scalar NCFSnNode.hostC[4].ipv4.ip packetDropUndefined:count 0
attr interpolationmode none
attr source packetDropReasonIsUndefined(packetDropped)
attr title "packet drop: undefined, count"
scalar NCFSnNode.hostC[4].ipv4.ip packetDropUndefined:sum(packetBytes) 0
attr interpolationmode none
attr source packetDropReasonIsUndefined(packetDropped)
attr title "packet drop: undefined, sum(packetBytes)"
scalar NCFSnNode.hostC[4].udp packetReceived:count 2158
attr interpolationmode none
attr source packetReceived
attr title "packets received, count"
scalar NCFSnNode.hostC[4].udp packetReceived:sum(packetBytes) 47476
attr interpolationmode none
attr source packetReceived
attr title "packets received, sum(packetBytes)"
scalar NCFSnNode.hostC[4].udp packetSent:count 60
attr interpolationmode none
attr source packetSent
attr title "packets sent, count"
scalar NCFSnNode.hostC[4].udp packetSent:sum(packetBytes) 1320
attr interpolationmode none
attr source packetSent
attr title "packets sent, sum(packetBytes)"
scalar NCFSnNode.hostC[4].udp passedUpPk:count 2158
attr interpolationmode none
attr source packetSentToUpper
attr title "packets passed up, count"
scalar NCFSnNode.hostC[4].udp droppedPkWrongPort:count 0
attr interpolationmode none
attr source packetDropReasonIsNoPortFound(packetDropped)
attr title "packets dropped (wrong port), count"
scalar NCFSnNode.hostC[4].udp droppedPkBadChecksum:count 0
attr interpolationmode none
attr source packetDropReasonIsIncorrectlyReceived(packetDropped)
attr title "packets dropped (checksum error), count"
scalar NCFSnNode.hostC[4].app[0] "packets sent" 0
scalar NCFSnNode.hostC[4].app[0] "packets received" 99
scalar NCFSnNode.hostC[4].app[0] packetReceived:count 0
attr interpolationmode none
attr source packetReceived
attr title "packets received, count"
scalar NCFSnNode.hostC[4].app[0] packetReceived:sum(packetBytes) 0
attr interpolationmode none
attr source packetReceived
attr title "packets received, sum(packetBytes)"
statistic NCFSnNode.hostC[4].app[0] rcvdPkLifetime:stats
field count 0
field mean nan
field stddev nan
field min nan
field max nan
field sum 0
field sqrsum 0
attr interpolationmode none
attr source dataAge(packetReceived)
attr title "received packet lifetime, stats"
attr unit s
scalar NCFSnNode.hostC[4].app[0] packetSent:count 0
attr interpolationmode none
attr source packetSent
attr title "packets sent, count"
scalar NCFSnNode.hostC[4].app[0] packetSent:sum(packetBytes) 0
attr interpolationmode none
attr source packetSent
attr title "packets sent, sum(packetBytes)"
scalar NCFSnNode.hostC[5].lo[0].lo rcvdPkFromHl:count 55
attr interpolationmode none
attr source packetReceivedFromUpper
attr title "packets received from higher layer, count"
scalar NCFSnNode.hostC[5].lo[0].lo rcvdPkFromHl:sum(packetBytes) 2310
attr interpolationmode none
attr source packetReceivedFromUpper
attr title "packets received from higher layer, sum(packetBytes)"
scalar NCFSnNode.hostC[5].lo[0].lo passedUpPk:count 55
attr interpolationmode none
attr source packetSentToUpper
attr title "packets passed to higher layer, count"
scalar NCFSnNode.hostC[5].lo[0].lo passedUpPk:sum(packetBytes) 2310
attr interpolationmode none
attr source packetSentToUpper
attr title "packets passed to higher layer, sum(packetBytes)"
scalar NCFSnNode.hostC[5].wlan[0].mac numRetry 0
scalar NCFSnNode.hostC[5].wlan[0].mac numSentWithoutRetry 0
scalar NCFSnNode.hostC[5].wlan[0].mac numGivenUp 0
scalar NCFSnNode.hostC[5].wlan[0].mac numCollision 0
scalar NCFSnNode.hostC[5].wlan[0].mac numSent 0
scalar NCFSnNode.hostC[5].wlan[0].mac numReceived 0
scalar NCFSnNode.hostC[5].wlan[0].mac numSentBroadcast 55
scalar NCFSnNode.hostC[5].wlan[0].mac numReceivedBroadcast 1886
scalar NCFSnNode.hostC[5].wlan[0].mac packetDropIncorrectlyReceived:count 0
attr interpolationmode none
attr source packetDropReasonIsIncorrectlyReceived(packetDropped)
attr title "packet drop: incorrectly received, count"
scalar NCFSnNode.hostC[5].wlan[0].mac packetDropIncorrectlyReceived:sum(packetBytes) 0
attr interpolationmode none
attr source packetDropReasonIsIncorrectlyReceived(packetDropped)
attr title "packet drop: incorrectly received, sum(packetBytes)"
scalar NCFSnNode.hostC[5].wlan[0].mac packetDropNotAddressedToUs:count 0
attr interpolationmode none
attr source packetDropReasonIsNotAddressedToUs(packetDropped)
attr title "packet drop: not addressed to us, count"
scalar NCFSnNode.hostC[5].wlan[0].mac packetDropNotAddressedToUs:sum(packetBytes) 0
attr interpolationmode none
attr source packetDropReasonIsNotAddressedToUs(packetDropped)
attr title "packet drop: not addressed to us, sum(packetBytes)"
scalar NCFSnNode.hostC[5].wlan[0].mac packetDropQueueOverflow:count 0
attr interpolationmode none
attr source packetDropReasonIsQueueOverflow(packetDropped)
attr title "packet drop: queue overflow, count"
scalar NCFSnNode.hostC[5].wlan[0].mac packetDropQueueOverflow:sum(packetBytes) 0
attr interpolationmode none
attr source packetDropReasonIsQueueOverflow(packetDropped)
attr title "packet drop: queue overflow, sum(packetBytes)"
scalar NCFSnNode.hostC[5].wlan[0].mac packetDropRetryLimitReached:count 0
attr interpolationmode none
attr source packetDropReasonIsRetryLimitReached(packetDropped)
attr title "packet drop: retry limit reached, count"
scalar NCFSnNode.hostC[5].wlan[0].mac packetDropRetryLimitReached:sum(packetBytes) 0
attr interpolationmode none
attr source packetDropReasonIsRetryLimitReached(packetDropped)
attr title "packet drop: retry limit reached, sum(packetBytes)"
scalar NCFSnNode.hostC[5].wlan[0].mac linkBroken:count 0
attr interpolationmode none
attr source linkBroken
attr title "link break, count"
statistic NCFSnNode.hostC[5].wlan[0].radio minSnir:histogram
field count 0
field mean nan
field stddev nan
field min nan
field max nan
field sum 0
field sqrsum 0
attr source minimumSnir(packetSentToUpper)
attr title "Min SNIR, histogram"
bin	-inf	0
bin	0	0
bin	1	0
statistic NCFSnNode.hostC[5].wlan[0].radio packetErrorRate:histogram
field count 1886
field mean 0.069989395546129
field stddev 0.25519680842062
field min 0
field max 1
field sum 132
field sqrsum 132
attr source packetErrorRate(packetSentToUpper)
attr title "Packet error rate, histogram"
bin	-inf	0
bin	0	1754
bin	1	132
bin	2	0
statistic NCFSnNode.hostC[5].wlan[0].radio bitErrorRate:histogram
field count 1886
field mean 0.069989395546129
field stddev 0.25519680842062
field min 0
field max 1
field sum 132
field sqrsum 132
attr source bitErrorRate(packetSentToUpper)
attr title "Bit error rate, histogram"
bin	-inf	0
bin	0	1754
bin	1	132
bin	2	0
statistic NCFSnNode.hostC[5].wlan[0].radio symbolErrorRate:histogram
field count 1886
field mean 0.069989395546129
field stddev 0.25519680842062
field min 0
field max 1
field sum 132
field sqrsum 132
attr source symbolErrorRate(packetSentToUpper)
attr title "Symbol error rate, histogram"
bin	-inf	0
bin	0	1754
bin	1	132
bin	2	0
scalar NCFSnNode.hostC[5].wlan[0].radio transmissionState:count 220
attr interpolationmode sample-hold
attr source transmissionStateChanged
attr title "Radio transmission state, count"
scalar NCFSnNode.hostC[5].wlan[0].radio receptionState:count 4038
attr interpolationmode sample-hold
attr source receptionStateChanged
attr title "Radio reception state, count"
scalar NCFSnNode.hostC[5].wlan[0].radio radioMode:count 113
attr interpolationmode sample-hold
attr source radioModeChanged
attr title "Radio mode, count"
scalar NCFSnNode.hostC[5].ipv4.ip packetDropAddressResolutionFailed:count 0
attr interpolationmode none
attr source packetDropReasonIsAddressResolutionFailed(packetDropped)
attr title "packet drop: address resolution failed, count"
scalar NCFSnNode.hostC[5].ipv4.ip packetDropAddressResolutionFailed:sum(packetBytes) 0
attr interpolationmode none
attr source packetDropReasonIsAddressResolutionFailed(packetDropped)
attr title "packet drop: address resolution failed, sum(packetBytes)"
scalar NCFSnNode.hostC[5].ipv4.ip packetDropHopLimitReached:count 0
attr interpolationmode none
attr source packetDropReasonIsHopLimitReached(packetDropped)
attr title "packet drop: hop limit reached, count"
scalar NCFSnNode.hostC[5].ipv4.ip packetDropHopLimitReached:sum(packetBytes) 0
attr interpolationmode none
attr source packetDropReasonIsHopLimitReached(packetDropped)
attr title "packet drop: hop limit reached, sum(packetBytes)"
scalar NCFSnNode.hostC[5].ipv4.ip packetDropForwardingDisabled:count 0
attr interpolationmode none
attr source packetDropReasonIsForwardingDisabled(packetDropped)
attr title "packet drop: forwarding disabled, count"
scalar NCFSnNode.hostC[5].ipv4.ip packetDropForwardingDisabled:sum(packetBytes) 0
attr interpolationmode none
attr source packetDropReasonIsForwardingDisabled(packetDropped)
attr title "packet drop: forwarding disabled, sum(packetBytes)"
scalar NCFSnNode.hostC[5].ipv4.ip packetDropNoInterfaceFound:count 0
attr interpolationmode none
attr source packetDropReasonIsNoInterfaceFound(packetDropped)
attr title "packet drop: no interface found, count"
scalar NCFSnNode.hostC[5].ipv4.ip packetDropNoInterfaceFound:sum(packetBytes) 0
attr interpolationmode none
attr source packetDropReasonIsNoInterfaceFound(packetDropped)
attr title "packet drop: no interface found, sum(packetBytes)"
scalar NCFSnNode.hostC[5].ipv4.ip packetDropNoRouteFound:count 0
attr interpolationmode none
attr source packetDropReasonIsNoRouteFound(packetDropped)
attr title "packet drop: no route found, count"
scalar NCFSnNode.hostC[5].ipv4.ip packetDropNoRouteFound:sum(packetBytes) 0
attr interpolationmode none
attr source packetDropReasonIsNoRouteFound(packetDropped)
attr title "packet drop: no route found, sum(packetBytes)"
scalar NCFSnNode.hostC[5].ipv4.ip packetDropUndefined:count 0
attr interpolationmode none
attr source packetDropReasonIsUndefined(packetDropped)
attr title "packet drop: undefined, count"
scalar NCFSnNode.hostC[5].ipv4.ip packetDropUndefined:sum(packetBytes) 0
attr interpolationmode none
attr source packetDropReasonIsUndefined(packetDropped)
attr title "packet drop: undefined, sum(packetBytes)"
scalar NCFSnNode.hostC[5].udp packetReceived:count 1941
attr interpolationmode none
attr source packetReceived
attr title "packets received, count"
scalar NCFSnNode.hostC[5].udp packetReceived:sum(packetBytes) 42702
attr interpolationmode none
attr source packetReceived
attr title "packets received, sum(packetBytes)"
scalar NCFSnNode.hostC[5].udp packetSent:count 55
attr interpolationmode none
attr source packetSent
attr title "packets sent, count"
scalar NCFSnNode.hostC[5].udp packetSent:sum(packetBytes) 1210
attr interpolationmode none
attr source packetSent
attr title "packets sent, sum(packetBytes)"
scalar NCFSnNode.hostC[5].udp passedUpPk:count 1941
attr interpolationmode none
attr source packetSentToUpper
attr title "packets passed up, count"
scalar NCFSnNode.hostC[5].udp droppedPkWrongPort:count 0
attr interpolationmode none
attr source packetDropReasonIsNoPortFound(packetDropped)
attr title "packets dropped (wrong port), count"
scalar NCFSnNode.hostC[5].udp droppedPkBadChecksum:count 0
attr interpolationmode none
attr source packetDropReasonIsIncorrectlyReceived(packetDropped)
attr title "packets dropped (checksum error), count"
scalar NCFSnNode.hostC[5].app[0] "packets sent" 0
scalar NCFSnNode.hostC[5].app[0] "packets received" 99
scalar NCFSnNode.hostC[5].app[0] packetReceived:count 0
attr interpolationmode none
attr source packetReceived
attr title "packets received, count"
scalar NCFSnNode.hostC[5].app[0] packetReceived:sum(packetBytes) 0
attr interpolationmode none
attr source packetReceived
attr title "packets received, sum(packetBytes)"
statistic NCFSnNode.hostC[5].app[0] rcvdPkLifetime:stats
field count 0
field mean nan
field stddev nan
field min nan
field max nan
field sum 0
field sqrsum 0
attr interpolationmode none
attr source dataAge(packetReceived)
attr title "received packet lifetime, stats"
attr unit s
scalar NCFSnNode.hostC[5].app[0] packetSent:count 0
attr interpolationmode none
attr source packetSent
attr title "packets sent, count"
scalar NCFSnNode.hostC[5].app[0] packetSent:sum(packetBytes) 0
attr interpolationmode none
attr source packetSent
attr title "packets sent, sum(packetBytes)"
scalar NCFSnNode.hostC[6].lo[0].lo rcvdPkFromHl:count 65
attr interpolationmode none
attr source packetReceivedFromUpper
attr title "packets received from higher layer, count"
scalar NCFSnNode.hostC[6].lo[0].lo rcvdPkFromHl:sum(packetBytes) 2730
attr interpolationmode none
attr source packetReceivedFromUpper
attr title "packets received from higher layer, sum(packetBytes)"
scalar NCFSnNode.hostC[6].lo[0].lo passedUpPk:count 65
attr interpolationmode none
attr source packetSentToUpper
attr title "packets passed to higher layer, count"
scalar NCFSnNode.hostC[6].lo[0].lo passedUpPk:sum(packetBytes) 2730
attr interpolationmode none
attr source packetSentToUpper
attr title "packets passed to higher layer, sum(packetBytes)"
scalar NCFSnNode.hostC[6].wlan[0].mac numRetry 0
scalar NCFSnNode.hostC[6].wlan[0].mac numSentWithoutRetry 0
scalar NCFSnNode.hostC[6].wlan[0].mac numGivenUp 0
scalar NCFSnNode.hostC[6].wlan[0].mac numCollision 0
scalar NCFSnNode.hostC[6].wlan[0].mac numSent 0
scalar NCFSnNode.hostC[6].wlan[0].mac numReceived 0
scalar NCFSnNode.hostC[6].wlan[0].mac numSentBroadcast 65
scalar NCFSnNode.hostC[6].wlan[0].mac numReceivedBroadcast 1918
scalar NCFSnNode.hostC[6].wlan[0].mac packetDropIncorrectlyReceived:count 0
attr interpolationmode none
attr source packetDropReasonIsIncorrectlyReceived(packetDropped)
attr title "packet drop: incorrectly received, count"
scalar NCFSnNode.hostC[6].wlan[0].mac packetDropIncorrectlyReceived:sum(packetBytes) 0
attr interpolationmode none
attr source packetDropReasonIsIncorrectlyReceived(packetDropped)
attr title "packet drop: incorrectly received, sum(packetBytes)"
scalar NCFSnNode.hostC[6].wlan[0].mac packetDropNotAddressedToUs:count 0
attr interpolationmode none
attr source packetDropReasonIsNotAddressedToUs(packetDropped)
attr title "packet drop: not addressed to us, count"
scalar NCFSnNode.hostC[6].wlan[0].mac packetDropNotAddressedToUs:sum(packetBytes) 0
attr interpolationmode none
attr source packetDropReasonIsNotAddressedToUs(packetDropped)
attr title "packet drop: not addressed to us, sum(packetBytes)"
scalar NCFSnNode.hostC[6].wlan[0].mac packetDropQueueOverflow:count 0
attr interpolationmode none
attr source packetDropReasonIsQueueOverflow(packetDropped)
attr title "packet drop: queue overflow, count"
scalar NCFSnNode.hostC[6].wlan[0].mac packetDropQueueOverflow:sum(packetBytes) 0
attr interpolationmode none
attr source packetDropReasonIsQueueOverflow(packetDropped)
attr title "packet drop: queue overflow, sum(packetBytes)"
scalar NCFSnNode.hostC[6].wlan[0].mac packetDropRetryLimitReached:count 0
attr interpolationmode none
attr source packetDropReasonIsRetryLimitReached(packetDropped)
attr title "packet drop: retry limit reached, count"
scalar NCFSnNode.hostC[6].wlan[0].mac packetDropRetryLimitReached:sum(packetBytes) 0
attr interpolationmode none
attr source packetDropReasonIsRetryLimitReached(packetDropped)
attr title "packet drop: retry limit reached, sum(packetBytes)"
scalar NCFSnNode.hostC[6].wlan[0].mac linkBroken:count 0
attr interpolationmode none
attr source linkBroken
attr title "link break, count"
statistic NCFSnNode.hostC[6].wlan[0].radio minSnir:histogram
field count 0
field mean nan
field stddev nan
field min nan
field max nan
field sum 0
field sqrsum 0
attr source minimumSnir(packetSentToUpper)
attr title "Min SNIR, histogram"
bin	-inf	0
bin	0	0
bin	1	0
statistic NCFSnNode.hostC[6].wlan[0].radio packetErrorRate:histogram
field count 1918
field mean 0.081856100104275
field stddev 0.27421685546363
field min 0
field max 1
field sum 157
field sqrsum 157
attr source packetErrorRate(packetSentToUpper)
attr title "Packet error rate, histogram"
bin	-inf	0
bin	0	1761
bin	1	157
bin	2	0
statistic NCFSnNode.hostC[6].wlan[0].radio bitErrorRate:histogram
field count 1918
field mean 0.081856100104275
field stddev 0.27421685546363
field min 0
field max 1
field sum 157
field sqrsum 157
attr source bitErrorRate(packetSentToUpper)
attr title "Bit error rate, histogram"
bin	-inf	0
bin	0	1761
bin	1	157
bin	2	0
statistic NCFSnNode.hostC[6].wlan[0].radio symbolErrorRate:histogram
field count 1918
field mean 0.081856100104275
field stddev 0.27421685546363
field min 0
field max 1
field sum 157
field sqrsum 157
attr source symbolErrorRate(packetSentToUpper)
attr title "Symbol error rate, histogram"
bin	-inf	0
bin	0	1761
bin	1	157
bin	2	0
scalar NCFSnNode.hostC[6].wlan[0].radio transmissionState:count 260
attr interpolationmode sample-hold
attr source transmissionStateChanged
attr title "Radio transmission state, count"
scalar NCFSnNode.hostC[6].wlan[0].radio receptionState:count 4146
attr interpolationmode sample-hold
attr source receptionStateChanged
attr title "Radio reception state, count"
scalar NCFSnNode.hostC[6].wlan[0].radio radioMode:count 133
attr interpolationmode sample-hold
attr source radioModeChanged
attr title "Radio mode, count"
scalar NCFSnNode.hostC[6].ipv4.ip packetDropAddressResolutionFailed:count 0
attr interpolationmode none
attr source packetDropReasonIsAddressResolutionFailed(packetDropped)
attr title "packet drop: address resolution failed, count"
scalar NCFSnNode.hostC[6].ipv4.ip packetDropAddressResolutionFailed:sum(packetBytes) 0
attr interpolationmode none
attr source packetDropReasonIsAddressResolutionFailed(packetDropped)
attr title "packet drop: address resolution failed, sum(packetBytes)"
scalar NCFSnNode.hostC[6].ipv4.ip packetDropHopLimitReached:count 0
attr interpolationmode none
attr source packetDropReasonIsHopLimitReached(packetDropped)
attr title "packet drop: hop limit reached, count"
scalar NCFSnNode.hostC[6].ipv4.ip packetDropHopLimitReached:sum(packetBytes) 0
attr interpolationmode none
attr source packetDropReasonIsHopLimitReached(packetDropped)
attr title "packet drop: hop limit reached, sum(packetBytes)"
scalar NCFSnNode.hostC[6].ipv4.ip packetDropForwardingDisabled:count 0
attr interpolationmode none
attr source packetDropReasonIsForwardingDisabled(packetDropped)
attr title "packet drop: forwarding disabled, count"
scalar NCFSnNode.hostC[6].ipv4.ip packetDropForwardingDisabled:sum(packetBytes) 0
attr interpolationmode none
attr source packetDropReasonIsForwardingDisabled(packetDropped)
attr title "packet drop: forwarding disabled, sum(packetBytes)"
scalar NCFSnNode.hostC[6].ipv4.ip packetDropNoInterfaceFound:count 0
attr interpolationmode none
attr source packetDropReasonIsNoInterfaceFound(packetDropped)
attr title "packet drop: no interface found, count"
scalar NCFSnNode.hostC[6].ipv4.ip packetDropNoInterfaceFound:sum(packetBytes) 0
attr interpolationmode none
attr source packetDropReasonIsNoInterfaceFound(packetDropped)
attr title "packet drop: no interface found, sum(packetBytes)"
scalar NCFSnNode.hostC[6].ipv4.ip packetDropNoRouteFound:count 0
attr interpolationmode none
attr source packetDropReasonIsNoRouteFound(packetDropped)
attr title "packet drop: no route found, count"
scalar NCFSnNode.hostC[6].ipv4.ip packetDropNoRouteFound:sum(packetBytes) 0
attr interpolationmode none
attr source packetDropReasonIsNoRouteFound(packetDropped)
attr title "packet drop: no route found, sum(packetBytes)"
scalar NCFSnNode.hostC[6].ipv4.ip packetDropUndefined:count 0
attr interpolationmode none
attr source packetDropReasonIsUndefined(packetDropped)
attr title "packet drop: undefined, count"
scalar NCFSnNode.hostC[6].ipv4.ip packetDropUndefined:sum(packetBytes) 0
attr interpolationmode none
attr source packetDropReasonIsUndefined(packetDropped)
attr title "packet drop: undefined, sum(packetBytes)"
scalar NCFSnNode.hostC[6].udp packetReceived:count 1983
attr interpolationmode none
attr source packetReceived
attr title "packets received, count"
scalar NCFSnNode.hostC[6].udp packetReceived:sum(packetBytes) 43626
attr interpolationmode none
attr source packetReceived
attr title "packets received, sum(packetBytes)"
scalar NCFSnNode.hostC[6].udp packetSent:count 65
attr interpolationmode none
attr source packetSent
attr title "packets sent, count"
scalar NCFSnNode.hostC[6].udp packetSent:sum(packetBytes) 1430
attr interpolationmode none
attr source packetSent
attr title "packets sent, sum(packetBytes)"
scalar NCFSnNode.hostC[6].udp passedUpPk:count 1983
attr interpolationmode none
attr source packetSentToUpper
attr title "packets passed up, count"
scalar NCFSnNode.hostC[6].udp droppedPkWrongPort:count 0
attr interpolationmode none
attr source packetDropReasonIsNoPortFound(packetDropped)
attr title "packets dropped (wrong port), count"
scalar NCFSnNode.hostC[6].udp droppedPkBadChecksum:count 0
attr interpolationmode none
attr source packetDropReasonIsIncorrectlyReceived(packetDropped)
attr title "packets dropped (checksum error), count"
scalar NCFSnNode.hostC[6].app[0] "packets sent" 0
scalar NCFSnNode.hostC[6].app[0] "packets received" 99
scalar NCFSnNode.hostC[6].app[0] packetReceived:count 0
attr interpolationmode none
attr source packetReceived
attr title "packets received, count"
scalar NCFSnNode.hostC[6].app[0] packetReceived:sum(packetBytes) 0
attr interpolationmode none
attr source packetReceived
attr title "packets received, sum(packetBytes)"
statistic NCFSnNode.hostC[6].app[0] rcvdPkLifetime:stats
field count 0
field mean nan
field stddev nan
field min nan
field max nan
field sum 0
field sqrsum 0
attr interpolationmode none
attr source dataAge(packetReceived)
attr title "received packet lifetime, stats"
attr unit s
scalar NCFSnNode.hostC[6].app[0] packetSent:count 0
attr interpolationmode none
attr source packetSent
attr title "packets sent, count"
scalar NCFSnNode.hostC[6].app[0] packetSent:sum(packetBytes) 0
attr interpolationmode none
attr source packetSent
[...]
field count 0
field mean nan
field stddev nan
field min nan
field max nan
field sum 0
field sqrsum 0
attr interpolationmode none
attr source dataAge(packetReceived)
attr title "received packet lifetime, stats"
attr unit s
scalar NCFSnNode.hostC[22].app[0] packetSent:count 0
attr interpolationmode none
attr source packetSent
attr title "packets sent, count"
scalar NCFSnNode.hostC[22].app[0] packetSent:sum(packetBytes) 0
attr interpolationmode none
attr source packetSent
attr title "packets sent, sum(packetBytes)"
scalar NCFSnNode.hostC[23].lo[0].lo rcvdPkFromHl:count 65
attr interpolationmode none
attr source packetReceivedFromUpper
attr title "packets received from higher layer, count"
scalar NCFSnNode.hostC[23].lo[0].lo rcvdPkFromHl:sum(packetBytes) 2730
attr interpolationmode none
attr source packetReceivedFromUpper
attr title "packets received from higher layer, sum(packetBytes)"
scalar NCFSnNode.hostC[23].lo[0].lo passedUpPk:count 65
attr interpolationmode none
attr source packetSentToUpper
attr title "packets passed to higher layer, count"
scalar NCFSnNode.hostC[23].lo[0].lo passedUpPk:sum(packetBytes) 2730
attr interpolationmode none
attr source packetSentToUpper
attr title "packets passed to higher layer, sum(packetBytes)"
scalar NCFSnNode.hostC[23].wlan[0].mac numRetry 0
scalar NCFSnNode.hostC[23].wlan[0].mac numSentWithoutRetry 0
scalar NCFSnNode.hostC[23].wlan[0].mac numGivenUp 0
scalar NCFSnNode.hostC[23].wlan[0].mac numCollision 0
scalar NCFSnNode.hostC[23].wlan[0].mac numSent 0
scalar NCFSnNode.hostC[23].wlan[0].mac numReceived 0
scalar NCFSnNode.hostC[23].wlan[0].mac numSentBroadcast 65
scalar NCFSnNode.hostC[23].wlan[0].mac numReceivedBroadcast 1957
scalar NCFSnNode.hostC[23].wlan[0].mac packetDropIncorrectlyReceived:count 0
attr interpolationmode none
attr source packetDropReasonIsIncorrectlyReceived(packetDropped)
attr title "packet drop: incorrectly received, count"
scalar NCFSnNode.hostC[23].wlan[0].mac packetDropIncorrectlyReceived:sum(packetBytes) 0
attr interpolationmode none
attr source packetDropReasonIsIncorrectlyReceived(packetDropped)
attr title "packet drop: incorrectly received, sum(packetBytes)"
scalar NCFSnNode.hostC[23].wlan[0].mac packetDropNotAddressedToUs:count 0
attr interpolationmode none
attr source packetDropReasonIsNotAddressedToUs(packetDropped)
attr title "packet drop: not addressed to us, count"
scalar NCFSnNode.hostC[23].wlan[0].mac packetDropNotAddressedToUs:sum(packetBytes) 0
attr interpolationmode none
attr source packetDropReasonIsNotAddressedToUs(packetDropped)
attr title "packet drop: not addressed to us, sum(packetBytes)"
scalar NCFSnNode.hostC[23].wlan[0].mac packetDropQueueOverflow:count 0
attr interpolationmode none
attr source packetDropReasonIsQueueOverflow(packetDropped)
attr title "packet drop: queue overflow, count"
scalar NCFSnNode.hostC[23].wlan[0].mac packetDropQueueOverflow:sum(packetBytes) 0
attr interpolationmode none
attr source packetDropReasonIsQueueOverflow(packetDropped)
attr title "packet drop: queue overflow, sum(packetBytes)"
scalar NCFSnNode.hostC[23].wlan[0].mac packetDropRetryLimitReached:count 0
attr interpolationmode none
attr source packetDropReasonIsRetryLimitReached(packetDropped)
attr title "packet drop: retry limit reached, count"
scalar NCFSnNode.hostC[23].wlan[0].mac packetDropRetryLimitReached:sum(packetBytes) 0
attr interpolationmode none
attr source packetDropReasonIsRetryLimitReached(packetDropped)
attr title "packet drop: retry limit reached, sum(packetBytes)"
scalar NCFSnNode.hostC[23].wlan[0].mac linkBroken:count 0
attr interpolationmode none
attr source linkBroken
attr title "link break, count"
statistic NCFSnNode.hostC[23].wlan[0].radio minSnir:histogram
field count 0
field mean nan
field stddev nan
field min nan
field max nan
field sum 0
field sqrsum 0
attr source minimumSnir(packetSentToUpper)
attr title "Min SNIR, histogram"
bin	-inf	0
bin	0	0
bin	1	0
statistic NCFSnNode.hostC[23].wlan[0].radio packetErrorRate:histogram
field count 1957
field mean 0.084823709759836
field stddev 0.27869039357373
field min 0
field max 1
field sum 166
field sqrsum 166
attr source packetErrorRate(packetSentToUpper)
attr title "Packet error rate, histogram"
bin	-inf	0
bin	0	1791
bin	1	166
bin	2	0
statistic NCFSnNode.hostC[23].wlan[0].radio bitErrorRate:histogram
field count 1957
field mean 0.084823709759836
field stddev 0.27869039357373
field min 0
field max 1
field sum 166
field sqrsum 166
attr source bitErrorRate(packetSentToUpper)
attr title "Bit error rate, histogram"
bin	-inf	0
bin	0	1791
bin	1	166
bin	2	0
statistic NCFSnNode.hostC[23].wlan[0].radio symbolErrorRate:histogram
field count 1957
field mean 0.084823709759836
field stddev 0.27869039357373
field min 0
field max 1
field sum 166
field sqrsum 166
attr source symbolErrorRate(packetSentToUpper)
attr title "Symbol error rate, histogram"
bin	-inf	0
bin	0	1791
bin	1	166
bin	2	0
scalar NCFSnNode.hostC[23].wlan[0].radio transmissionState:count 260
attr interpolationmode sample-hold
attr source transmissionStateChanged
attr title "Radio transmission state, count"
scalar NCFSnNode.hostC[23].wlan[0].radio receptionState:count 4228
attr interpolationmode sample-hold
attr source receptionStateChanged
attr title "Radio reception state, count"
scalar NCFSnNode.hostC[23].wlan[0].radio radioMode:count 133
attr interpolationmode sample-hold
attr source radioModeChanged
attr title "Radio mode, count"
scalar NCFSnNode.hostC[23].ipv4.ip packetDropAddressResolutionFailed:count 0
attr interpolationmode none
attr source packetDropReasonIsAddressResolutionFailed(packetDropped)
attr title "packet drop: address resolution failed, count"
scalar NCFSnNode.hostC[23].ipv4.ip packetDropAddressResolutionFailed:sum(packetBytes) 0
attr interpolationmode none
attr source packetDropReasonIsAddressResolutionFailed(packetDropped)
attr title "packet drop: address resolution failed, sum(packetBytes)"
scalar NCFSnNode.hostC[23].ipv4.ip packetDropHopLimitReached:count 0
attr interpolationmode none
attr source packetDropReasonIsHopLimitReached(packetDropped)
attr title "packet drop: hop limit reached, count"
scalar NCFSnNode.hostC[23].ipv4.ip packetDropHopLimitReached:sum(packetBytes) 0
attr interpolationmode none
attr source packetDropReasonIsHopLimitReached(packetDropped)
attr title "packet drop: hop limit reached, sum(packetBytes)"
scalar NCFSnNode.hostC[23].ipv4.ip packetDropForwardingDisabled:count 0
attr interpolationmode none
attr source packetDropReasonIsForwardingDisabled(packetDropped)
attr title "packet drop: forwarding disabled, count"
scalar NCFSnNode.hostC[23].ipv4.ip packetDropForwardingDisabled:sum(packetBytes) 0
attr interpolationmode none
attr source packetDropReasonIsForwardingDisabled(packetDropped)
attr title "packet drop: forwarding disabled, sum(packetBytes)"
scalar NCFSnNode.hostC[23].ipv4.ip packetDropNoInterfaceFound:count 0
attr interpolationmode none
attr source packetDropReasonIsNoInterfaceFound(packetDropped)
attr title "packet drop: no interface found, count"
scalar NCFSnNode.hostC[23].ipv4.ip packetDropNoInterfaceFound:sum(packetBytes) 0
attr interpolationmode none
attr source packetDropReasonIsNoInterfaceFound(packetDropped)
attr title "packet drop: no interface found, sum(packetBytes)"
scalar NCFSnNode.hostC[23].ipv4.ip packetDropNoRouteFound:count 0
attr interpolationmode none
attr source packetDropReasonIsNoRouteFound(packetDropped)
attr title "packet drop: no route found, count"
scalar NCFSnNode.hostC[23].ipv4.ip packetDropNoRouteFound:sum(packetBytes) 0
attr interpolationmode none
attr source packetDropReasonIsNoRouteFound(packetDropped)
attr title "packet drop: no route found, sum(packetBytes)"
scalar NCFSnNode.hostC[23].ipv4.ip packetDropUndefined:count 0
attr interpolationmode none
attr source packetDropReasonIsUndefined(packetDropped)
attr title "packet drop: undefined, count"
scalar NCFSnNode.hostC[23].ipv4.ip packetDropUndefined:sum(packetBytes) 0
attr interpolationmode none
attr source packetDropReasonIsUndefined(packetDropped)
attr title "packet drop: undefined, sum(packetBytes)"
scalar NCFSnNode.hostC[23].udp packetReceived:count 2022
attr interpolationmode none
attr source packetReceived
attr title "packets received, count"
scalar NCFSnNode.hostC[23].udp packetReceived:sum(packetBytes) 44484
attr interpolationmode none
attr source packetReceived
attr title "packets received, sum(packetBytes)"
scalar NCFSnNode.hostC[23].udp packetSent:count 65
attr interpolationmode none
attr source packetSent
attr title "packets sent, count"
scalar NCFSnNode.hostC[23].udp packetSent:sum(packetBytes) 1430
attr interpolationmode none
attr source packetSent
attr title "packets sent, sum(packetBytes)"
scalar NCFSnNode.hostC[23].udp passedUpPk:count 2022
attr interpolationmode none
attr source packetSentToUpper
attr title "packets passed up, count"
scalar NCFSnNode.hostC[23].udp droppedPkWrongPort:count 0
attr interpolationmode none
attr source packetDropReasonIsNoPortFound(packetDropped)
attr title "packets dropped (wrong port), count"
scalar NCFSnNode.hostC[23].udp droppedPkBadChecksum:count 0
attr interpolationmode none
attr source packetDropReasonIsIncorrectlyReceived(packetDropped)
attr title "packets dropped (checksum error), count"
scalar NCFSnNode.hostC[23].app[0] "packets sent" 0
scalar NCFSnNode.hostC[23].app[0] "packets received" 99
scalar NCFSnNode.hostC[23].app[0] packetReceived:count 0
attr interpolationmode none
attr source packetReceived
attr title "packets received, count"
scalar NCFSnNode.hostC[23].app[0] packetReceived:sum(packetBytes) 0
attr interpolationmode none
attr source packetReceived
attr title "packets received, sum(packetBytes)"
statistic NCFSnNode.hostC[23].app[0] rcvdPkLifetime:stats
field count 0
field mean nan
field stddev nan
field min nan
field max nan
field sum 0
field sqrsum 0
attr interpolationmode none
attr source dataAge(packetReceived)
attr title "received packet lifetime, stats"
attr unit s
scalar NCFSnNode.hostC[23].app[0] packetSent:count 0
attr interpolationmode none
attr source packetSent
attr title "packets sent, count"
scalar NCFSnNode.hostC[23].app[0] packetSent:sum(packetBytes) 0
attr interpolationmode none
attr source packetSent
attr title "packets sent, sum(packetBytes)"
scalar NCFSnNode.hostC[24].lo[0].lo rcvdPkFromHl:count 62
attr interpolationmode none
attr source packetReceivedFromUpper
attr title "packets received from higher layer, count"
scalar NCFSnNode.hostC[24].lo[0].lo rcvdPkFromHl:sum(packetBytes) 2604
attr interpolationmode none
attr source packetReceivedFromUpper
attr title "packets received from higher layer, sum(packetBytes)"
scalar NCFSnNode.hostC[24].lo[0].lo passedUpPk:count 62
attr interpolationmode none
attr source packetSentToUpper
attr title "packets passed to higher layer, count"
scalar NCFSnNode.hostC[24].lo[0].lo passedUpPk:sum(packetBytes) 2604
attr interpolationmode none
attr source packetSentToUpper
attr title "packets passed to higher layer, sum(packetBytes)"
scalar NCFSnNode.hostC[24].wlan[0].mac numRetry 0
scalar NCFSnNode.hostC[24].wlan[0].mac numSentWithoutRetry 0
scalar NCFSnNode.hostC[24].wlan[0].mac numGivenUp 0
scalar NCFSnNode.hostC[24].wlan[0].mac numCollision 0
scalar NCFSnNode.hostC[24].wlan[0].mac numSent 0
scalar NCFSnNode.hostC[24].wlan[0].mac numReceived 0
scalar NCFSnNode.hostC[24].wlan[0].mac numSentBroadcast 62
scalar NCFSnNode.hostC[24].wlan[0].mac numReceivedBroadcast 2067
scalar NCFSnNode.hostC[24].wlan[0].mac packetDropIncorrectlyReceived:count 0
attr interpolationmode none
attr source packetDropReasonIsIncorrectlyReceived(packetDropped)
attr title "packet drop: incorrectly received, count"
scalar NCFSnNode.hostC[24].wlan[0].mac packetDropIncorrectlyReceived:sum(packetBytes) 0
attr interpolationmode none
attr source packetDropReasonIsIncorrectlyReceived(packetDropped)
attr title "packet drop: incorrectly received, sum(packetBytes)"
scalar NCFSnNode.hostC[24].wlan[0].mac packetDropNotAddressedToUs:count 0
attr interpolationmode none
attr source packetDropReasonIsNotAddressedToUs(packetDropped)
attr title "packet drop: not addressed to us, count"
scalar NCFSnNode.hostC[24].wlan[0].mac packetDropNotAddressedToUs:sum(packetBytes) 0
attr interpolationmode none
attr source packetDropReasonIsNotAddressedToUs(packetDropped)
attr title "packet drop: not addressed to us, sum(packetBytes)"
scalar NCFSnNode.hostC[24].wlan[0].mac packetDropQueueOverflow:count 0
attr interpolationmode none
attr source packetDropReasonIsQueueOverflow(packetDropped)
attr title "packet drop: queue overflow, count"
scalar NCFSnNode.hostC[24].wlan[0].mac packetDropQueueOverflow:sum(packetBytes) 0
attr interpolationmode none
attr source packetDropReasonIsQueueOverflow(packetDropped)
attr title "packet drop: queue overflow, sum(packetBytes)"
scalar NCFSnNode.hostC[24].wlan[0].mac packetDropRetryLimitReached:count 0
attr interpolationmode none
attr source packetDropReasonIsRetryLimitReached(packetDropped)
attr title "packet drop: retry limit reached, count"
scalar NCFSnNode.hostC[24].wlan[0].mac packetDropRetryLimitReached:sum(packetBytes) 0
attr interpolationmode none
attr source packetDropReasonIsRetryLimitReached(packetDropped)
attr title "packet drop: retry limit reached, sum(packetBytes)"
scalar NCFSnNode.hostC[24].wlan[0].mac linkBroken:count 0
attr interpolationmode none
attr source linkBroken
attr title "link break, count"
statistic NCFSnNode.hostC[24].wlan[0].radio minSnir:histogram
field count 0
field mean nan
field stddev nan
field min nan
field max nan
field sum 0
field sqrsum 0
attr source minimumSnir(packetSentToUpper)
attr title "Min SNIR, histogram"
bin	-inf	0
bin	0	0
bin	1	0
statistic NCFSnNode.hostC[24].wlan[0].radio packetErrorRate:histogram
field count 2067
field mean 0.10933720367683
field stddev 0.3121373341609
field min 0
field max 1
field sum 226
field sqrsum 226
attr source packetErrorRate(packetSentToUpper)
attr title "Packet error rate, histogram"
bin	-inf	0
bin	0	1841
bin	1	226
bin	2	0
statistic NCFSnNode.hostC[24].wlan[0].radio bitErrorRate:histogram
field count 2067
field mean 0.10933720367683
field stddev 0.3121373341609
field min 0
field max 1
field sum 226
field sqrsum 226
attr source bitErrorRate(packetSentToUpper)
attr title "Bit error rate, histogram"
bin	-inf	0
bin	0	1841
bin	1	226
bin	2	0
statistic NCFSnNode.hostC[24].wlan[0].radio symbolErrorRate:histogram
field count 2067
field mean 0.10933720367683
field stddev 0.3121373341609
field min 0
field max 1
field sum 226
field sqrsum 226
attr source symbolErrorRate(packetSentToUpper)
attr title "Symbol error rate, histogram"
bin	-inf	0
bin	0	1841
bin	1	226
bin	2	0
scalar NCFSnNode.hostC[24].wlan[0].radio transmissionState:count 248
attr interpolationmode sample-hold
attr source transmissionStateChanged
attr title "Radio transmission state, count"
scalar NCFSnNode.hostC[24].wlan[0].radio receptionState:count 4505
attr interpolationmode sample-hold
attr source receptionStateChanged
attr title "Radio reception state, count"
scalar NCFSnNode.hostC[24].wlan[0].radio radioMode:count 127
attr interpolationmode sample-hold
attr source radioModeChanged
attr title "Radio mode, count"
scalar NCFSnNode.hostC[24].ipv4.ip packetDropAddressResolutionFailed:count 0
attr interpolationmode none
attr source packetDropReasonIsAddressResolutionFailed(packetDropped)
attr title "packet drop: address resolution failed, count"
scalar NCFSnNode.hostC[24].ipv4.ip packetDropAddressResolutionFailed:sum(packetBytes) 0
attr interpolationmode none
attr source packetDropReasonIsAddressResolutionFailed(packetDropped)
attr title "packet drop: address resolution failed, sum(packetBytes)"
scalar NCFSnNode.hostC[24].ipv4.ip packetDropHopLimitReached:count 0
attr interpolationmode none
attr source packetDropReasonIsHopLimitReached(packetDropped)
attr title "packet drop: hop limit reached, count"
scalar NCFSnNode.hostC[24].ipv4.ip packetDropHopLimitReached:sum(packetBytes) 0
attr interpolationmode none
attr source packetDropReasonIsHopLimitReached(packetDropped)
attr title "packet drop: hop limit reached, sum(packetBytes)"
scalar NCFSnNode.hostC[24].ipv4.ip packetDropForwardingDisabled:count 0
attr interpolationmode none
attr source packetDropReasonIsForwardingDisabled(packetDropped)
attr title "packet drop: forwarding disabled, count"
scalar NCFSnNode.hostC[24].ipv4.ip packetDropForwardingDisabled:sum(packetBytes) 0
attr interpolationmode none
attr source packetDropReasonIsForwardingDisabled(packetDropped)
attr title "packet drop: forwarding disabled, sum(packetBytes)"
scalar NCFSnNode.hostC[24].ipv4.ip packetDropNoInterfaceFound:count 0
attr interpolationmode none
attr source packetDropReasonIsNoInterfaceFound(packetDropped)
attr title "packet drop: no interface found, count"
scalar NCFSnNode.hostC[24].ipv4.ip packetDropNoInterfaceFound:sum(packetBytes) 0
attr interpolationmode none
attr source packetDropReasonIsNoInterfaceFound(packetDropped)
attr title "packet drop: no interface found, sum(packetBytes)"
scalar NCFSnNode.hostC[24].ipv4.ip packetDropNoRouteFound:count 0
attr interpolationmode none
attr source packetDropReasonIsNoRouteFound(packetDropped)
attr title "packet drop: no route found, count"
scalar NCFSnNode.hostC[24].ipv4.ip packetDropNoRouteFound:sum(packetBytes) 0
attr interpolationmode none
attr source packetDropReasonIsNoRouteFound(packetDropped)
attr title "packet drop: no route found, sum(packetBytes)"
scalar NCFSnNode.hostC[24].ipv4.ip packetDropUndefined:count 0
attr interpolationmode none
attr source packetDropReasonIsUndefined(packetDropped)
attr title "packet drop: undefined, count"
scalar NCFSnNode.hostC[24].ipv4.ip packetDropUndefined:sum(packetBytes) 0
attr interpolationmode none
attr source packetDropReasonIsUndefined(packetDropped)
attr title "packet drop: undefined, sum(packetBytes)"
scalar NCFSnNode.hostC[24].udp packetReceived:count 2129
attr interpolationmode none
attr source packetReceived
attr title "packets received, count"
scalar NCFSnNode.hostC[24].udp packetReceived:sum(packetBytes) 46838
attr interpolationmode none
attr source packetReceived
attr title "packets received, sum(packetBytes)"
scalar NCFSnNode.hostC[24].udp packetSent:count 62
attr interpolationmode none
attr source packetSent
attr title "packets sent, count"
scalar NCFSnNode.hostC[24].udp packetSent:sum(packetBytes) 1364
attr interpolationmode none
attr source packetSent
attr title "packets sent, sum(packetBytes)"
scalar NCFSnNode.hostC[24].udp passedUpPk:count 2129
attr interpolationmode none
attr source packetSentToUpper
attr title "packets passed up, count"
scalar NCFSnNode.hostC[24].udp droppedPkWrongPort:count 0
attr interpolationmode none
attr source packetDropReasonIsNoPortFound(packetDropped)
attr title "packets dropped (wrong port), count"
scalar NCFSnNode.hostC[24].udp droppedPkBadChecksum:count 0
attr interpolationmode none
attr source packetDropReasonIsIncorrectlyReceived(packetDropped)
attr title "packets dropped (checksum error), count"
scalar NCFSnNode.hostC[24].app[0] "packets sent" 0
scalar NCFSnNode.hostC[24].app[0] "packets received" 99
scalar NCFSnNode.hostC[24].app[0] packetReceived:count 0
attr interpolationmode none
attr source packetReceived
attr title "packets received, count"
scalar NCFSnNode.hostC[24].app[0] packetReceived:sum(packetBytes) 0
attr interpolationmode none
attr source packetReceived
attr title "packets received, sum(packetBytes)"
statistic NCFSnNode.hostC[24].app[0] rcvdPkLifetime:stats
field count 0
field mean nan
field stddev nan
field min nan
field max nan
field sum 0
field sqrsum 0
attr interpolationmode none
attr source dataAge(packetReceived)
attr title "received packet lifetime, stats"
attr unit s
scalar NCFSnNode.hostC[24].app[0] packetSent:count 0
attr interpolationmode none
attr source packetSent
attr title "packets sent, count"
scalar NCFSnNode.hostC[24].app[0] packetSent:sum(packetBytes) 0
attr interpolationmode none
attr source packetSent
attr title "packets sent, sum(packetBytes)"

